pcf
* control data
restart  estimation
66  6692    18     0     1
2    2 single point   1   0   0
10.0  -3  0.3  0.03  10  lamforgive derforgive
10.0  10.0  0.001
0.1  noaui
-2   0.005  4  4  0.005  4
0  0  0 parsaveitn reisaveitn
* singular value decomposition
1
66 5E-07
0
* parameter groups
ddsd         relative 0.025  0.0  switch  2.0 parabolic 1.0e-4 0.5 smaller
ddsw         relative 0.025  0.0  switch  2.0 parabolic 1.0e-4 0.5 smaller
ddgd         relative 0.025  0.0  switch  2.0 parabolic 1.0e-4 0.5 smaller
ddgw         relative 0.025  0.0  switch  2.0 parabolic 1.0e-4 0.5 smaller
rcsd         relative 0.025  0.0  switch  2.0 parabolic 1.0e-4 0.5 smaller
rcsw         relative 0.025  0.0  switch  2.0 parabolic 1.0e-4 0.5 smaller
rcrd         relative 0.025  0.0  switch  2.0 parabolic 1.0e-4 0.5 smaller
rcrw         relative 0.025  0.0  switch  2.0 parabolic 1.0e-4 0.5 smaller
rcgd         relative 0.025  0.0  switch  2.0 parabolic 1.0e-4 0.5 smaller
rcgw         relative 0.025  0.0  switch  2.0 parabolic 1.0e-4 0.5 smaller
tl           relative 0.025  0.0  switch  2.0 parabolic 1.0e-4 0.5 smaller
xw           relative 0.25  0.0  switch  2.0 parabolic 1.0e-4 0.5 smaller
yw           relative 0.25  0.0  switch  2.0 parabolic 1.0e-4 0.5 smaller
x            relative 0.25  0.0  switch  2.0 parabolic 1.0e-4 0.5 smaller
y            relative 0.25  0.0  switch  2.0 parabolic 1.0e-4 0.5 smaller
tlr			 relative 0.5  0.0  switch  2.0 parabolic 1.0e-4 0.5 smaller
tls			 relative 0.5  0.0  switch  2.0 parabolic 1.0e-4 0.5 smaller
beta			 relative 0.025  0.0  switch  2.0 parabolic 1.0e-4 0.5 smaller
* parameter data
ddsd	log	factor	0.1622918	1.00E-08	1.1	ddsd	1	0	1
ddsw	log	factor	0.1622918	1.00E-08	1.1	ddsw	1	0	1
ddgd	log	factor	0.0067153	1.00E-08	1.1	ddgd	1	0	1
ddgw	log	factor	0.00629674	1.00E-08	1.1	ddgw	1	0	1
rcs1d	log	factor	0.2444891	1.00E-08	1	rcsd	1.00E+00	0	1
rcs1w	log	factor	0.2444891	1.00E-08	1	rcsw	1.00E+00	0	1
rcs2d	log	factor	0.2444891	1.00E-08	1	rcsd	1.00E+00	0	1
rcs2w	log	factor	0.2444891	1.00E-08	1	rcsw	1.00E+00	0	1
rcs3d	log	factor	0.2444891	1.00E-08	1	rcsd	1.00E+00	0	1
rcs3w	log	factor	0.2444891	1.00E-08	1	rcsw	1.00E+00	0	1
rcs4d	log	factor	0.2444891	1.00E-08	1	rcsd	1.00E+00	0	1
rcs4w	log	factor	0.2444891	1.00E-08	1	rcsw	1.00E+00	0	1
rcs5d	log	factor	0.2444891	1.00E-08	1	rcsd	1.00E+00	0	1
rcs5w	log	factor	0.2444891	1.00E-08	1	rcsw	1.00E+00	0	1
rcs6d	log	factor	0.2444891	1.00E-08	1	rcsd	1.00E+00	0	1
rcs6w	log	factor	0.2444891	1.00E-08	1	rcsw	1.00E+00	0	1
rcs7d	log	factor	0.2444891	1.00E-08	1	rcsd	1.00E+00	0	1
rcs7w	log	factor	0.2444891	1.00E-08	1	rcsw	1.00E+00	0	1
rcs8d	log	factor	0.2444891	1.00E-08	1	rcsd	1.00E+00	0	1
rcs8w	log	factor	0.2444891	1.00E-08	1	rcsw	1.00E+00	0	1
rcs9d	log	factor	0.2444891	1.00E-08	1	rcsd	1.00E+00	0	1
rcs9w	log	factor	0.2444891	1.00E-08	1	rcsw	1.00E+00	0	1
rcs10d	log	factor	0.2444891	1.00E-08	1	rcsd	1.00E+00	0	1
rcs10w	log	factor	0.2444891	1.00E-08	1	rcsw	1.00E+00	0	1
rcs11d	log	factor	0.2444891	1.00E-08	1	rcsd	1.00E+00	0	1
rcs11w	log	factor	0.2444891	1.00E-08	1	rcsw	1.00E+00	0	1
rcs12d	log	factor	0.2444891	1.00E-08	1	rcsd	1.00E+00	0	1
rcs12w	log	factor	0.2444891	1.00E-08	1	rcsw	1.00E+00	0	1
rcs13d	log	factor	0.2444891	1.00E-08	1	rcsd	1.00E+00	0	1
rcs13w	log	factor	0.2444891	1.00E-08	1	rcsw	1.00E+00	0	1
rcr1d	log	factor	0.9	1.00E-08	1	rcrd	1.00E+00	0	1
rcr1w	log	factor	0.9	1.00E-08	1	rcrw	1.00E+00	0	1
rcr2d	log	factor	0.9	1.00E-08	1	rcrd	1.00E+00	0	1
rcr2w	log	factor	0.9	1.00E-08	1	rcrw	1.00E+00	0	1
rcr3d	log	factor	0.9	1.00E-08	1	rcrd	1.00E+00	0	1
rcr3w	log	factor	0.9	1.00E-08	1	rcrw	1.00E+00	0	1
rcr4d	log	factor	0.9	1.00E-08	1	rcrd	1.00E+00	0	1
rcr4w	log	factor	0.9	1.00E-08	1	rcrw	1.00E+00	0	1
rcr5d	log	factor	0.9	1.00E-08	1	rcrd	1.00E+00	0	1
rcr5w	log	factor	0.9	1.00E-08	1	rcrw	1.00E+00	0	1
rcr6d	log	factor	0.9	1.00E-08	1	rcrd	1.00E+00	0	1
rcr6w	log	factor	0.9	1.00E-08	1	rcrw	1.00E+00	0	1
rcr7d	log	factor	0.9	1.00E-08	1	rcrd	1.00E+00	0	1
rcr7w	log	factor	0.9	1.00E-08	1	rcrw	1.00E+00	0	1
rcr8d	log	factor	0.9	1.00E-08	1	rcrd	1.00E+00	0	1
rcr8w	log	factor	0.9	1.00E-08	1	rcrw	1.00E+00	0	1
rcr9d	log	factor	0.9	1.00E-08	1	rcrd	1.00E+00	0	1
rcr9w	log	factor	0.9	1.00E-08	1	rcrw	1.00E+00	0	1
rcr10d	log	factor	0.9	1.00E-08	1	rcrd	1.00E+00	0	1
rcr10w	log	factor	0.9	1.00E-08	1	rcrw	1.00E+00	0	1
rcr11d	log	factor	0.9	1.00E-08	1	rcrd	1.00E+00	0	1
rcr11w	log	factor	0.9	1.00E-08	1	rcrw	1.00E+00	0	1
rcr12d	log	factor	0.9	1.00E-08	1	rcrd	1.00E+00	0	1
rcr12w	log	factor	0.9	1.00E-08	1	rcrw	1.00E+00	0	1
rcr13d	log	factor	0.9	1.00E-08	1	rcrd	1.00E+00	0	1
rcr13w	log	factor	0.9	1.00E-08	1	rcrw	1.00E+00	0	1
rcgd	log	factor	0.9	1.00E-08	2.59	rcgd	1	0	1
rcgw	log	factor	0.003920087	1.00E-08	2.59	rcgw	1	0	1
tl	log	factor	1	1.00E-08	5	tl	1	0	1
xw	log	factor	1	1.00E-08	2.1	xw	1	0	1
yw	log	factor	0.009036255	1.00E-08	1	yw	1	0	1
x	log	factor	1	1.00E-08	2.3	x	1	0	1
y	log	factor	0.2883624	1.00E-08	1	y	1	0	1
tlr	log	factor	1.3857	1.00E-08	10	tlr	1	0	1
tls	log	factor	1.6609	1.00E-08	30	tls	1	0	1
beta	log	factor	0.41	2.00E-01	5.10E-01	beta	1	0	1
* observation groups
q
* observation data
q1	9690	0.5	q
q2	9630	0.5	q
q3	9330	0.5	q
q4	8910	0.5	q
q5	8490	0.5	q
q6	8450	0.5	q
q7	8110	0.5	q
q8	7620	0.5	q
q9	7050	0.5	q
q10	6820	0.5	q
q11	6620	0.5	q
q12	7600	0.5	q
q13	7900	0.5	q
q14	8590	0.5	q
q15	8060	0.5	q
q16	7340	0.5	q
q17	7490	0.5	q
q18	7520	0.5	q
q19	7430	0.5	q
q20	7480	0.5	q
q21	7160	0.5	q
q22	7250	0.5	q
q23	7200	0.5	q
q24	6970	0.5	q
q25	6790	0.5	q
q26	6640	0.5	q
q27	6540	0.5	q
q28	6440	0.5	q
q29	6380	0.5	q
q30	6080	0.5	q
q31	6060	0.5	q
q32	3130	0.5	q
q33	3310	0.5	q
q34	2940	0.5	q
q35	2670	0.5	q
q36	2700	0.5	q
q37	2660	0.5	q
q38	2430	0.5	q
q39	2600	0.5	q
q40	2380	0.5	q
q41	2150	0.5	q
q42	2070	0.5	q
q43	9000	0.5	q
q44	3840	0.5	q
q45	2150	0.5	q
q46	1970	0.5	q
q47	2020	0.5	q
q48	2080	0.5	q
q49	1860	0.5	q
q50	1720	0.5	q
q51	160	0.5	q
q52	1640	0.5	q
q53	1390	0.5	q
q54	1360	0.5	q
q55	1390	0.5	q
q56	1380	0.5	q
q57	1460	0.5	q
q58	2140	0.5	q
q59	1680	0.5	q
q60	1520	0.5	q
q61	1490	0.5	q
q62	1360	0.5	q
q63	1380	0.5	q
q64	1390	0.5	q
q65	1160	0.5	q
q66	990	0.5	q
q67	940	0.5	q
q68	870	0.5	q
q69	920	0.5	q
q70	850	0.5	q
q71	890	0.5	q
q72	2630	0.5	q
q73	860	0.5	q
q74	880	0.5	q
q75	870	0.5	q
q76	910	0.5	q
q77	860	0.5	q
q78	800	0.5	q
q79	2420	0.5	q
q80	530	0.5	q
q81	520	0.5	q
q82	390	0.5	q
q83	400	0.5	q
q84	350	0.5	q
q85	390	0.5	q
q86	2210	0.5	q
q87	10	0.5	q
q88	2890	0.5	q
q89	2850	0.5	q
q90	2810	0.5	q
q91	2790	0.5	q
q92	2820	0.5	q
q93	2040	0.5	q
q94	2720	0.5	q
q95	2820	0.5	q
q96	2830	0.5	q
q97	2950	0.5	q
q98	2910	0.5	q
q99	2970	0.5	q
q100	2220	0.5	q
q101	2920	0.5	q
q102	2930	0.5	q
q103	2810	0.5	q
q104	2750	0.5	q
q105	470	0.5	q
q106	250	0.5	q
q107	2290	0.5	q
q108	180	0.5	q
q109	2880	0.5	q
q110	190	0.5	q
q111	2430	0.5	q
q112	2130	0.5	q
q113	2090	0.5	q
q114	2060	0.5	q
q115	2020	0.5	q
q116	1970	0.5	q
q117	1940	0.5	q
q118	1910	0.5	q
q119	1860	0.5	q
q120	1770	0.5	q
q121	1720	0.5	q
q122	1500	0.5	q
q123	1510	0.5	q
q124	1490	0.5	q
q125	1460	0.5	q
q126	1410	0.5	q
q127	1410	0.5	q
q128	1380	0.5	q
q129	1360	0.5	q
q130	1340	0.5	q
q131	1300	0.5	q
q132	1260	0.5	q
q133	1250	0.5	q
q134	1260	0.5	q
q135	1240	0.5	q
q136	1400	0.5	q
q137	1430	0.5	q
q138	1400	0.5	q
q139	1520	0.5	q
q140	1550	0.5	q
q141	1610	0.5	q
q142	1550	0.5	q
q143	1590	0.5	q
q144	1590	0.5	q
q145	1700	0.5	q
q146	1830	0.5	q
q147	1830	0.5	q
q148	1740	0.5	q
q149	1720	0.5	q
q150	1750	0.5	q
q151	1720	0.5	q
q152	1700	0.5	q
q153	1660	0.5	q
q154	1650	0.5	q
q155	1600	0.5	q
q156	1550	0.5	q
q157	1580	0.5	q
q158	1590	0.5	q
q159	1620	0.5	q
q160	1640	0.5	q
q161	1640	0.5	q
q162	1840	0.5	q
q163	1730	0.5	q
q164	5140	0.5	q
q167	17500	0.5	q
q168	13500	0.5	q
q169	11800	0.5	q
q170	10600	0.5	q
q171	9750	0.5	q
q172	9400	0.5	q
q173	19800	0.5	q
q174	19300	0.5	q
q175	17700	0.5	q
q176	19900	0.5	q
q177	17300	0.5	q
q178	15300	0.5	q
q179	20100	0.5	q
q180	18800	0.5	q
q188	23400	0.5	q
q190	24200	0.5	q
q191	21100	0.5	q
q192	18500	0.5	q
q193	15800	0.5	q
q194	14400	0.5	q
q195	13400	0.5	q
q196	12700	0.5	q
q197	11900	0.5	q
q198	11700	0.5	q
q199	11800	0.5	q
q200	11800	0.5	q
q201	11600	0.5	q
q202	13200	0.5	q
q203	14400	0.5	q
q204	13200	0.5	q
q205	12000	0.5	q
q206	11700	0.5	q
q207	11800	0.5	q
q208	12100	0.5	q
q209	12200	0.5	q
q210	11900	0.5	q
q211	11700	0.5	q
q212	11300	0.5	q
q213	11100	0.5	q
q214	10400	0.5	q
q215	10100	0.5	q
q216	10100	0.5	q
q217	9900	0.5	q
q218	9520	0.5	q
q219	8970	0.5	q
q220	9050	0.5	q
q221	9160	0.5	q
q222	9020	0.5	q
q223	8840	0.5	q
q224	9030	0.5	q
q225	9030	0.5	q
q226	8720	0.5	q
q227	8410	0.5	q
q228	7660	0.5	q
q229	7300	0.5	q
q230	6850	0.5	q
q231	7070	0.5	q
q232	7760	0.5	q
q233	8200	0.5	q
q234	9060	0.5	q
q235	9010	0.5	q
q236	8750	0.5	q
q237	8340	0.5	q
q238	7630	0.5	q
q239	6960	0.5	q
q240	6830	0.5	q
q241	6600	0.5	q
q242	5980	0.5	q
q246	5720	0.5	q
q247	5670	0.5	q
q248	5760	0.5	q
q249	5710	0.5	q
q252	10100	0.5	q
q253	16600	0.5	q
q254	23000	0.5	q
q255	17300	0.5	q
q256	17200	0.5	q
q257	19400	0.5	q
q258	18700	0.5	q
q259	17500	0.5	q
q260	17500	0.5	q
q261	18700	0.5	q
q262	19900	0.5	q
q263	20500	0.5	q
q264	22100	0.5	q
q265	19900	0.5	q
q266	18100	0.5	q
q267	17000	0.5	q
q268	17000	0.5	q
q269	16900	0.5	q
q270	18800	0.5	q
q271	19300	0.5	q
q272	19200	0.5	q
q273	16500	0.5	q
q274	14700	0.5	q
q275	13700	0.5	q
q276	12700	0.5	q
q277	13800	0.5	q
q278	13500	0.5	q
q279	15400	0.5	q
q280	15500	0.5	q
q281	16000	0.5	q
q282	16000	0.5	q
q283	14600	0.5	q
q284	14000	0.5	q
q285	13800	0.5	q
q286	13600	0.5	q
q287	13300	0.5	q
q288	13900	0.5	q
q289	14500	0.5	q
q290	14000	0.5	q
q291	15200	0.5	q
q292	16200	0.5	q
q293	16600	0.5	q
q294	17000	0.5	q
q295	17300	0.5	q
q296	16900	0.5	q
q297	16300	0.5	q
q298	15600	0.5	q
q299	14400	0.5	q
q300	13300	0.5	q
q301	13700	0.5	q
q302	15000	0.5	q
q303	16500	0.5	q
q304	17200	0.5	q
q305	15800	0.5	q
q306	14300	0.5	q
q307	14600	0.5	q
q308	14200	0.5	q
q309	13900	0.5	q
q310	12700	0.5	q
q311	12200	0.5	q
q312	12200	0.5	q
q313	14000	0.5	q
q314	13300	0.5	q
q315	12700	0.5	q
q316	12200	0.5	q
q317	12000	0.5	q
q318	11800	0.5	q
q319	11400	0.5	q
q320	12000	0.5	q
q321	13400	0.5	q
q322	15700	0.5	q
q323	18200	0.5	q
q324	19200	0.5	q
q325	19500	0.5	q
q326	19700	0.5	q
q327	18300	0.5	q
q328	17900	0.5	q
q329	18700	0.5	q
q330	19500	0.5	q
q331	20100	0.5	q
q332	20500	0.5	q
q333	20300	0.5	q
q334	21000	0.5	q
q335	21100	0.5	q
q336	21300	0.5	q
q337	21400	0.5	q
q338	22200	0.5	q
q339	21500	0.5	q
q340	22000	0.5	q
q347	23500	0.5	q
q348	22700	0.5	q
q349	21800	0.5	q
q350	20400	0.5	q
q351	19900	0.5	q
q352	19600	0.5	q
q353	21700	0.5	q
q357	24800	0.5	q
q358	21100	0.5	q
q359	20500	0.5	q
q360	19500	0.5	q
q361	17500	0.5	q
q362	14200	0.5	q
q363	14900	0.5	q
q364	16200	0.5	q
q365	16800	0.5	q
q366	18800	0.5	q
q367	19200	0.5	q
q368	19400	0.5	q
q369	19500	0.5	q
q370	19400	0.5	q
q371	19300	0.5	q
q372	19200	0.5	q
q373	18700	0.5	q
q374	17500	0.5	q
q375	16700	0.5	q
q376	13400	0.5	q
q377	12100	0.5	q
q378	12600	0.5	q
q379	13900	0.5	q
q380	14500	0.5	q
q381	16400	0.5	q
q382	17800	0.5	q
q383	16800	0.5	q
q384	14900	0.5	q
q385	13200	0.5	q
q386	12900	0.5	q
q387	13200	0.5	q
q388	12600	0.5	q
q389	12400	0.5	q
q390	12500	0.5	q
q391	12900	0.5	q
q392	12300	0.5	q
q393	12700	0.5	q
q394	12200	0.5	q
q395	11800	0.5	q
q396	11300	0.5	q
q397	10300	0.5	q
q398	6670	0.5	q
q399	5920	0.5	q
q400	5890	0.5	q
q401	6400	0.5	q
q402	6970	0.5	q
q403	6750	0.5	q
q404	6230	0.5	q
q405	5510	0.5	q
q406	5390	0.5	q
q407	5480	0.5	q
q408	4800	0.5	q
q410	4450	0.5	q
q411	4680	0.5	q
q412	5170	0.5	q
q413	4760	0.5	q
q414	5320	0.5	q
q415	5710	0.5	q
q416	5970	0.5	q
q417	5750	0.5	q
q418	4750	0.5	q
q432	1530	0.5	q
q433	1360	0.5	q
q434	1170	0.5	q
q435	940	0.5	q
q436	850	0.5	q
q437	1010	0.5	q
q438	700	0.5	q
q439	540	0.5	q
q440	520	0.5	q
q441	570	0.5	q
q442	630	0.5	q
q443	580	0.5	q
q444	470	0.5	q
q445	290	0.5	q
q446	50	0.5	q
q447	470	0.5	q
q467	290	0.5	q
q468	260	0.5	q
q469	1650	0.5	q
q470	1580	0.5	q
q471	630	0.5	q
q472	990	0.5	q
q473	980	0.5	q
q474	860	0.5	q
q475	850	0.5	q
q476	790	0.5	q
q477	850	0.5	q
q478	220	0.5	q
q479	1320	0.5	q
q480	1260	0.5	q
q481	1620	0.5	q
q482	1160	0.5	q
q483	1400	0.5	q
q484	1170	0.5	q
q485	260	0.5	q
q486	40	0.5	q
q487	2630	0.5	q
q493	2970	0.5	q
q494	2910	0.5	q
q495	2680	0.5	q
q501	2860	0.5	q
q502	2660	0.5	q
q503	2710	0.5	q
q504	8810	0.5	q
q505	3930	0.5	q
q506	3460	0.5	q
q507	3230	0.5	q
q508	3000	0.5	q
q509	2920	0.5	q
q510	2890	0.5	q
q511	2900	0.5	q
q512	10800	0.5	q
q513	9040	0.5	q
q514	7620	0.5	q
q515	22400	0.5	q
q516	23500	0.5	q
q517	16700	0.5	q
q518	12100	0.5	q
q519	9800	0.5	q
q520	8080	0.5	q
q521	6940	0.5	q
q522	6290	0.5	q
q523	5800	0.5	q
q524	5720	0.5	q
q525	6020	0.5	q
q526	5790	0.5	q
q527	5500	0.5	q
q528	5400	0.5	q
q529	5130	0.5	q
q530	5130	0.5	q
q531	15600	0.5	q
q532	14100	0.5	q
q533	10500	0.5	q
q534	8540	0.5	q
q535	7350	0.5	q
q536	6610	0.5	q
q537	6130	0.5	q
q538	5740	0.5	q
q539	5280	0.5	q
q540	5180	0.5	q
q541	4850	0.5	q
q542	4570	0.5	q
q543	4270	0.5	q
q544	4110	0.5	q
q545	4010	0.5	q
q546	3910	0.5	q
q547	3900	0.5	q
q548	3970	0.5	q
q549	4030	0.5	q
q550	4330	0.5	q
q551	4430	0.5	q
q552	4440	0.5	q
q553	4360	0.5	q
q554	4360	0.5	q
q555	6020	0.5	q
q556	7070	0.5	q
q557	6120	0.5	q
q558	5880	0.5	q
q561	31700	0.5	q
q562	18400	0.5	q
q563	14100	0.5	q
q564	13500	0.5	q
q569	16400	0.5	q
q570	14000	0.5	q
q571	12600	0.5	q
q572	11700	0.5	q
q573	10800	0.5	q
q574	10200	0.5	q
q575	9900	0.5	q
q576	11500	0.5	q
q580	16900	0.5	q
q581	14900	0.5	q
q582	13500	0.5	q
q583	12800	0.5	q
q584	12000	0.5	q
q585	11500	0.5	q
q586	11300	0.5	q
q587	11000	0.5	q
q588	10900	0.5	q
q589	10800	0.5	q
q590	10500	0.5	q
q591	10100	0.5	q
q592	9800	0.5	q
q601	9580	0.5	q
q602	9800	0.5	q
q603	11100	0.5	q
q604	13600	0.5	q
q605	12000	0.5	q
q612	24000	0.5	q
q613	20800	0.5	q
q614	18600	0.5	q
q615	17000	0.5	q
q616	15400	0.5	q
q617	14400	0.5	q
q618	13100	0.5	q
q619	12400	0.5	q
q620	12400	0.5	q
q621	12400	0.5	q
q622	12000	0.5	q
q623	11800	0.5	q
q624	11600	0.5	q
q625	11800	0.5	q
q626	12100	0.5	q
q627	11700	0.5	q
q628	11400	0.5	q
q629	11300	0.5	q
q630	11700	0.5	q
q631	12600	0.5	q
q632	12800	0.5	q
q633	12400	0.5	q
q634	11900	0.5	q
q635	11400	0.5	q
q636	10800	0.5	q
q637	9800	0.5	q
q638	9640	0.5	q
q639	9300	0.5	q
q640	7100	0.5	q
q641	7450	0.5	q
q642	7960	0.5	q
q643	8210	0.5	q
q644	8470	0.5	q
q645	9200	0.5	q
q646	8920	0.5	q
q647	8090	0.5	q
q648	8040	0.5	q
q649	8240	0.5	q
q650	9240	0.5	q
q651	10100	0.5	q
q652	11100	0.5	q
q653	11800	0.5	q
q654	13000	0.5	q
q655	14000	0.5	q
q656	14200	0.5	q
q657	14300	0.5	q
q658	13700	0.5	q
q659	11900	0.5	q
q660	12100	0.5	q
q661	12100	0.5	q
q662	12000	0.5	q
q663	11500	0.5	q
q664	11700	0.5	q
q665	10200	0.5	q
q666	9150	0.5	q
q667	8460	0.5	q
q668	8240	0.5	q
q669	9190	0.5	q
q670	10300	0.5	q
q671	11500	0.5	q
q672	12500	0.5	q
q673	12800	0.5	q
q674	12000	0.5	q
q675	11000	0.5	q
q676	9770	0.5	q
q677	8980	0.5	q
q678	8370	0.5	q
q679	7620	0.5	q
q680	7150	0.5	q
q681	7340	0.5	q
q682	7570	0.5	q
q683	8580	0.5	q
q684	9290	0.5	q
q685	9170	0.5	q
q686	9680	0.5	q
q687	10400	0.5	q
q688	10900	0.5	q
q689	11900	0.5	q
q690	11700	0.5	q
q691	11300	0.5	q
q692	11500	0.5	q
q693	11600	0.5	q
q694	10600	0.5	q
q695	10500	0.5	q
q696	10900	0.5	q
q697	11200	0.5	q
q698	12000	0.5	q
q699	12600	0.5	q
q700	12500	0.5	q
q701	13300	0.5	q
q702	12500	0.5	q
q703	10900	0.5	q
q704	10300	0.5	q
q705	11400	0.5	q
q706	12900	0.5	q
q707	15700	0.5	q
q708	16800	0.5	q
q709	19400	0.5	q
q710	19400	0.5	q
q711	18400	0.5	q
q712	19000	0.5	q
q713	21000	0.5	q
q714	20800	0.5	q
q715	22400	0.5	q
q721	24500	0.5	q
q722	21700	0.5	q
q723	20500	0.5	q
q724	21600	0.5	q
q726	24700	0.5	q
q727	24000	0.5	q
q728	22700	0.5	q
q729	21000	0.5	q
q730	20400	0.5	q
q731	19800	0.5	q
q732	19400	0.5	q
q733	18400	0.5	q
q734	18100	0.5	q
q735	17400	0.5	q
q736	15700	0.5	q
q737	15500	0.5	q
q738	16100	0.5	q
q739	16900	0.5	q
q740	15500	0.5	q
q741	15000	0.5	q
q742	15300	0.5	q
q743	15100	0.5	q
q744	14900	0.5	q
q745	14100	0.5	q
q746	13600	0.5	q
q747	13000	0.5	q
q748	12100	0.5	q
q749	11800	0.5	q
q750	11700	0.5	q
q751	11300	0.5	q
q752	10500	0.5	q
q753	9900	0.5	q
q754	9680	0.5	q
q755	9620	0.5	q
q756	9490	0.5	q
q757	9300	0.5	q
q758	8830	0.5	q
q759	8840	0.5	q
q760	8920	0.5	q
q761	9700	0.5	q
q762	9330	0.5	q
q763	6300	0.5	q
q764	6130	0.5	q
q765	3300	0.5	q
q766	6310	0.5	q
q767	6060	0.5	q
q768	5740	0.5	q
q769	5630	0.5	q
q770	5480	0.5	q
q771	5330	0.5	q
q772	2530	0.5	q
q773	4920	0.5	q
q774	4620	0.5	q
q775	4510	0.5	q
q776	4500	0.5	q
q777	4480	0.5	q
q778	4510	0.5	q
q779	2010	0.5	q
q780	4270	0.5	q
q781	4050	0.5	q
q782	3840	0.5	q
q783	3800	0.5	q
q784	3970	0.5	q
q785	4040	0.5	q
q786	1720	0.5	q
q787	3680	0.5	q
q788	3600	0.5	q
q789	3770	0.5	q
q790	3570	0.5	q
q791	3480	0.5	q
q792	3380	0.5	q
q793	1270	0.5	q
q794	3240	0.5	q
q795	3350	0.5	q
q796	3280	0.5	q
q797	3190	0.5	q
q798	3200	0.5	q
q799	3150	0.5	q
q800	1010	0.5	q
q801	2780	0.5	q
q802	2740	0.5	q
q803	2690	0.5	q
q804	2670	0.5	q
q805	2620	0.5	q
q806	2740	0.5	q
q807	650	0.5	q
q808	2330	0.5	q
q809	2310	0.5	q
q810	3510	0.5	q
q811	2770	0.5	q
q812	2200	0.5	q
q813	2240	0.5	q
q814	290	0.5	q
q815	1950	0.5	q
q816	2000	0.5	q
q817	1930	0.5	q
q818	1850	0.5	q
q819	450	0.5	q
q820	240	0.5	q
q821	2920	0.5	q
q822	1170	0.5	q
q823	1100	0.5	q
q824	1080	0.5	q
q825	1070	0.5	q
q826	1070	0.5	q
q827	1100	0.5	q
q828	2640	0.5	q
q829	600	0.5	q
q830	590	0.5	q
q831	570	0.5	q
q832	590	0.5	q
q833	580	0.5	q
q834	620	0.5	q
q835	2430	0.5	q
q836	520	0.5	q
q837	470	0.5	q
q838	380	0.5	q
q839	370	0.5	q
q840	340	0.5	q
q841	340	0.5	q
q842	2290	0.5	q
q843	140	0.5	q
q844	300	0.5	q
q845	340	0.5	q
q846	470	0.5	q
q847	290	0.5	q
q848	2630	0.5	q
q849	2270	0.5	q
q850	560	0.5	q
q851	2790	0.5	q
q852	2370	0.5	q
q853	2210	0.5	q
q854	2090	0.5	q
q855	1990	0.5	q
q856	1900	0.5	q
q857	1820	0.5	q
q858	1740	0.5	q
q859	1680	0.5	q
q860	1620	0.5	q
q861	1580	0.5	q
q862	1540	0.5	q
q863	1500	0.5	q
q864	1510	0.5	q
q865	9900	0.5	q
q866	14600	0.5	q
q867	7860	0.5	q
q868	5930	0.5	q
q869	5130	0.5	q
q870	4720	0.5	q
q871	4240	0.5	q
q872	3880	0.5	q
q873	3590	0.5	q
q874	3380	0.5	q
q875	3380	0.5	q
q878	21800	0.5	q
q879	14900	0.5	q
q880	11200	0.5	q
q881	9410	0.5	q
q882	8790	0.5	q
q883	10800	0.5	q
q884	12900	0.5	q
q887	28500	0.5	q
q888	18400	0.5	q
q889	13700	0.5	q
q890	11400	0.5	q
q891	10100	0.5	q
q892	9540	0.5	q
q893	9000	0.5	q
q894	8510	0.5	q
q895	8190	0.5	q
q896	8010	0.5	q
q897	7770	0.5	q
q898	7520	0.5	q
q899	7150	0.5	q
q900	6940	0.5	q
q901	6800	0.5	q
q902	6730	0.5	q
q903	6870	0.5	q
q904	6950	0.5	q
q905	7150	0.5	q
q906	7630	0.5	q
q907	8840	0.5	q
q908	9340	0.5	q
q909	9250	0.5	q
q910	8950	0.5	q
q911	8100	0.5	q
q912	7270	0.5	q
q913	6620	0.5	q
q914	6150	0.5	q
q915	5850	0.5	q
q916	5600	0.5	q
q917	5370	0.5	q
q918	5200	0.5	q
q919	5070	0.5	q
q920	4960	0.5	q
q921	4740	0.5	q
q922	4610	0.5	q
q923	4530	0.5	q
q924	4510	0.5	q
q925	4700	0.5	q
q926	4910	0.5	q
q927	5050	0.5	q
q928	5110	0.5	q
q929	5270	0.5	q
q930	5380	0.5	q
q931	7710	0.5	q
q933	31500	0.5	q
q934	21000	0.5	q
q935	22900	0.5	q
q936	20100	0.5	q
q937	16100	0.5	q
q938	13400	0.5	q
q939	11700	0.5	q
q940	11500	0.5	q
q941	11600	0.5	q
q942	11600	0.5	q
q943	10600	0.5	q
q944	9900	0.5	q
q945	9340	0.5	q
q946	8800	0.5	q
q947	8140	0.5	q
q948	8910	0.5	q
q953	27000	0.5	q
q954	22400	0.5	q
q955	19500	0.5	q
q956	17800	0.5	q
q957	16500	0.5	q
q958	14800	0.5	q
q959	13600	0.5	q
q960	12800	0.5	q
q961	13400	0.5	q
q962	12800	0.5	q
q963	11200	0.5	q
q964	10400	0.5	q
q965	10000	0.5	q
q966	17800	0.5	q
q973	30900	0.5	q
q974	25100	0.5	q
q975	21500	0.5	q
q976	19600	0.5	q
q977	21800	0.5	q
q978	22600	0.5	q
q979	23200	0.5	q
q980	20400	0.5	q
q981	18100	0.5	q
q982	16200	0.5	q
q983	15000	0.5	q
q984	15400	0.5	q
q985	14100	0.5	q
q986	13000	0.5	q
q987	12100	0.5	q
q988	12000	0.5	q
q990	13500	0.5	q
q991	13100	0.5	q
q992	12300	0.5	q
q993	11600	0.5	q
q994	11300	0.5	q
q995	11000	0.5	q
q996	11000	0.5	q
q997	11000	0.5	q
q998	11200	0.5	q
q999	11800	0.5	q
q1000	12500	0.5	q
q1001	12400	0.5	q
q1002	12800	0.5	q
q1003	13300	0.5	q
q1004	13300	0.5	q
q1005	13300	0.5	q
q1006	13300	0.5	q
q1007	12200	0.5	q
q1008	11300	0.5	q
q1009	11200	0.5	q
q1010	12400	0.5	q
q1011	11000	0.5	q
q1012	10200	0.5	q
q1013	9900	0.5	q
q1014	10300	0.5	q
q1015	10500	0.5	q
q1016	10800	0.5	q
q1017	13300	0.5	q
q1018	15100	0.5	q
q1019	13400	0.5	q
q1020	13200	0.5	q
q1021	13400	0.5	q
q1022	13500	0.5	q
q1023	11700	0.5	q
q1024	10500	0.5	q
q1025	9440	0.5	q
q1026	9330	0.5	q
q1027	10600	0.5	q
q1028	11800	0.5	q
q1029	11700	0.5	q
q1030	10700	0.5	q
q1031	9780	0.5	q
q1032	10000	0.5	q
q1033	11900	0.5	q
q1034	13600	0.5	q
q1035	15200	0.5	q
q1036	15800	0.5	q
q1037	13500	0.5	q
q1038	11300	0.5	q
q1039	11100	0.5	q
q1040	12300	0.5	q
q1041	13300	0.5	q
q1042	13500	0.5	q
q1043	12600	0.5	q
q1044	11000	0.5	q
q1045	10000	0.5	q
q1046	10600	0.5	q
q1047	12300	0.5	q
q1048	14700	0.5	q
q1049	16200	0.5	q
q1050	17800	0.5	q
q1051	20900	0.5	q
q1052	21800	0.5	q
q1053	18100	0.5	q
q1054	17600	0.5	q
q1055	15900	0.5	q
q1056	15300	0.5	q
q1057	16700	0.5	q
q1058	19000	0.5	q
q1059	21100	0.5	q
q1060	22200	0.5	q
q1061	21800	0.5	q
q1062	20300	0.5	q
q1063	19900	0.5	q
q1064	20800	0.5	q
q1065	20600	0.5	q
q1066	18100	0.5	q
q1067	17200	0.5	q
q1068	17500	0.5	q
q1069	19700	0.5	q
q1070	20300	0.5	q
q1071	19300	0.5	q
q1072	17900	0.5	q
q1073	18700	0.5	q
q1074	20900	0.5	q
q1075	22000	0.5	q
q1076	22200	0.5	q
q1081	22600	0.5	q
q1082	21600	0.5	q
q1083	22800	0.5	q
q1084	21500	0.5	q
q1085	20000	0.5	q
q1086	19500	0.5	q
q1087	18300	0.5	q
q1088	15500	0.5	q
q1089	15000	0.5	q
q1090	15700	0.5	q
q1091	19600	0.5	q
q1092	23900	0.5	q
q1094	24500	0.5	q
q1095	23000	0.5	q
q1096	23000	0.5	q
q1097	23200	0.5	q
q1098	23900	0.5	q
q1099	23900	0.5	q
q1100	22100	0.5	q
q1101	21500	0.5	q
q1102	20300	0.5	q
q1103	20900	0.5	q
q1104	20900	0.5	q
q1105	19700	0.5	q
q1106	19500	0.5	q
q1107	19500	0.5	q
q1108	19300	0.5	q
q1109	19400	0.5	q
q1110	21300	0.5	q
q1111	22000	0.5	q
q1112	21300	0.5	q
q1113	20800	0.5	q
q1114	19100	0.5	q
q1115	17800	0.5	q
q1116	21700	0.5	q
q1119	21300	0.5	q
q1120	15700	0.5	q
q1121	16800	0.5	q
q1122	17800	0.5	q
q1123	17800	0.5	q
q1124	17100	0.5	q
q1125	16600	0.5	q
q1126	16300	0.5	q
q1127	15500	0.5	q
q1135	10500	0.5	q
q1136	10300	0.5	q
q1137	9900	0.5	q
q1138	9600	0.5	q
q1139	9300	0.5	q
q1140	8900	0.5	q
q1141	9100	0.5	q
q1142	8900	0.5	q
q1143	7600	0.5	q
q1144	6730	0.5	q
q1145	6410	0.5	q
q1146	6220	0.5	q
q1147	6850	0.5	q
q1148	6710	0.5	q
q1149	6670	0.5	q
q1150	3950	0.5	q
q1151	6360	0.5	q
q1152	6740	0.5	q
q1153	6840	0.5	q
q1154	6890	0.5	q
q1155	6810	0.5	q
q1156	6700	0.5	q
q1157	3710	0.5	q
q1158	6150	0.5	q
q1159	6090	0.5	q
q1160	6140	0.5	q
q1161	6170	0.5	q
q1162	6290	0.5	q
q1163	6340	0.5	q
q1164	3620	0.5	q
q1165	6090	0.5	q
q1166	6050	0.5	q
q1167	5880	0.5	q
q1168	5580	0.5	q
q1169	5380	0.5	q
q1170	5270	0.5	q
q1171	2430	0.5	q
q1172	4370	0.5	q
q1173	4470	0.5	q
q1174	4500	0.5	q
q1175	4440	0.5	q
q1176	4400	0.5	q
q1177	4380	0.5	q
q1178	2130	0.5	q
q1179	4090	0.5	q
q1180	4060	0.5	q
q1181	4000	0.5	q
q1182	3970	0.5	q
q1183	3990	0.5	q
q1184	3880	0.5	q
q1185	1620	0.5	q
q1186	3370	0.5	q
q1187	3270	0.5	q
q1188	3210	0.5	q
q1189	3080	0.5	q
q1190	3070	0.5	q
q1191	3000	0.5	q
q1192	1000	0.5	q
q1193	2660	0.5	q
q1194	2640	0.5	q
q1195	2590	0.5	q
q1196	2550	0.5	q
q1197	2550	0.5	q
q1198	2530	0.5	q
q1199	610	0.5	q
q1200	2290	0.5	q
q1201	2290	0.5	q
q1202	2330	0.5	q
q1203	2330	0.5	q
q1204	450	0.5	q
q1205	200	0.5	q
q1206	2990	0.5	q
q1207	1600	0.5	q
q1208	1650	0.5	q
q1209	1740	0.5	q
q1210	2200	0.5	q
q1211	2420	0.5	q
q1212	3410	0.5	q
q1214	3000	0.5	q
q1215	2500	0.5	q
q1216	3630	0.5	q
q1217	6580	0.5	q
q1218	6340	0.5	q
q1219	5930	0.5	q
q1220	4320	0.5	q
q1221	3440	0.5	q
q1222	3190	0.5	q
q1223	2950	0.5	q
q1224	2720	0.5	q
q1225	2510	0.5	q
q1226	2320	0.5	q
q1227	2140	0.5	q
q1228	1990	0.5	q
q1229	1880	0.5	q
q1230	1800	0.5	q
q1231	1740	0.5	q
q1232	1690	0.5	q
q1233	1640	0.5	q
q1234	1590	0.5	q
q1235	1560	0.5	q
q1236	2340	0.5	q
q1237	6330	0.5	q
q1238	7600	0.5	q
q1239	4360	0.5	q
q1240	3860	0.5	q
q1241	3610	0.5	q
q1242	3330	0.5	q
q1243	3160	0.5	q
q1244	3050	0.5	q
q1245	3100	0.5	q
q1246	3150	0.5	q
q1247	3020	0.5	q
q1248	2870	0.5	q
q1249	2750	0.5	q
q1250	2620	0.5	q
q1251	2500	0.5	q
q1252	9800	0.5	q
q1253	8360	0.5	q
q1254	6010	0.5	q
q1255	5700	0.5	q
q1256	8260	0.5	q
q1258	10900	0.5	q
q1259	10900	0.5	q
q1260	12000	0.5	q
q1261	11700	0.5	q
q1262	11300	0.5	q
q1263	9400	0.5	q
q1264	8100	0.5	q
q1265	7240	0.5	q
q1266	7390	0.5	q
q1271	12700	0.5	q
q1272	10500	0.5	q
q1273	9130	0.5	q
q1274	8170	0.5	q
q1275	7370	0.5	q
q1276	6730	0.5	q
q1277	6140	0.5	q
q1278	5680	0.5	q
q1279	5400	0.5	q
q1280	5130	0.5	q
q1281	5170	0.5	q
q1282	5600	0.5	q
q1283	5790	0.5	q
q1284	8370	0.5	q
q1285	12700	0.5	q
q1286	9690	0.5	q
q1287	8710	0.5	q
q1288	8180	0.5	q
q1289	8140	0.5	q
q1290	8240	0.5	q
q1291	9700	0.5	q
q1292	9090	0.5	q
q1293	8430	0.5	q
q1294	7840	0.5	q
q1295	7480	0.5	q
q1296	7640	0.5	q
q1297	8200	0.5	q
q1298	7700	0.5	q
q1299	7050	0.5	q
q1300	6500	0.5	q
q1301	5940	0.5	q
q1302	5560	0.5	q
q1303	5280	0.5	q
q1304	5010	0.5	q
q1305	4750	0.5	q
q1306	4530	0.5	q
q1307	4390	0.5	q
q1308	4280	0.5	q
q1309	4390	0.5	q
q1310	4160	0.5	q
q1311	4040	0.5	q
q1312	4070	0.5	q
q1313	3990	0.5	q
q1314	3870	0.5	q
q1315	3760	0.5	q
q1316	3680	0.5	q
q1317	3600	0.5	q
q1318	3670	0.5	q
q1319	3830	0.5	q
q1320	3850	0.5	q
q1321	3870	0.5	q
q1322	3830	0.5	q
q1323	3830	0.5	q
q1324	3840	0.5	q
q1325	3870	0.5	q
q1326	3910	0.5	q
q1327	3860	0.5	q
q1328	3830	0.5	q
q1329	3760	0.5	q
q1330	3620	0.5	q
q1331	3450	0.5	q
q1332	3290	0.5	q
q1333	3200	0.5	q
q1334	3220	0.5	q
q1335	3280	0.5	q
q1336	3310	0.5	q
q1337	3280	0.5	q
q1338	3280	0.5	q
q1339	3230	0.5	q
q1340	3240	0.5	q
q1341	3390	0.5	q
q1342	3620	0.5	q
q1343	3690	0.5	q
q1344	4500	0.5	q
q1345	4780	0.5	q
q1346	4900	0.5	q
q1347	4410	0.5	q
q1348	4130	0.5	q
q1349	4080	0.5	q
q1350	4190	0.5	q
q1351	4390	0.5	q
q1352	4600	0.5	q
q1353	4910	0.5	q
q1354	5040	0.5	q
q1355	4840	0.5	q
q1356	4780	0.5	q
q1357	4660	0.5	q
q1358	4380	0.5	q
q1359	4110	0.5	q
q1360	3870	0.5	q
q1361	3760	0.5	q
q1362	3710	0.5	q
q1363	3780	0.5	q
q1364	3910	0.5	q
q1365	4060	0.5	q
q1366	13700	0.5	q
q1367	9900	0.5	q
q1368	8400	0.5	q
q1369	7740	0.5	q
q1370	7030	0.5	q
q1371	6670	0.5	q
q1372	6380	0.5	q
q1373	6450	0.5	q
q1374	6480	0.5	q
q1375	6680	0.5	q
q1376	6560	0.5	q
q1377	7600	0.5	q
q1378	6610	0.5	q
q1379	5900	0.5	q
q1380	5870	0.5	q
q1381	6170	0.5	q
q1382	6930	0.5	q
q1383	8010	0.5	q
q1384	9110	0.5	q
q1385	9160	0.5	q
q1386	8300	0.5	q
q1387	7460	0.5	q
q1388	7130	0.5	q
q1389	7110	0.5	q
q1390	7250	0.5	q
q1391	7390	0.5	q
q1392	7740	0.5	q
q1393	7520	0.5	q
q1394	6600	0.5	q
q1395	5850	0.5	q
q1396	5650	0.5	q
q1397	5900	0.5	q
q1398	6870	0.5	q
q1399	7880	0.5	q
q1400	7230	0.5	q
q1401	7370	0.5	q
q1402	7910	0.5	q
q1403	8410	0.5	q
q1404	8220	0.5	q
q1405	8560	0.5	q
q1406	8720	0.5	q
q1407	8330	0.5	q
q1408	7350	0.5	q
q1409	7010	0.5	q
q1410	7430	0.5	q
q1411	7870	0.5	q
q1412	7270	0.5	q
q1413	6520	0.5	q
q1414	7040	0.5	q
q1415	7240	0.5	q
q1416	8190	0.5	q
q1418	12000	0.5	q
q1419	11300	0.5	q
q1420	11300	0.5	q
q1421	12200	0.5	q
q1422	11800	0.5	q
q1423	10700	0.5	q
q1424	10500	0.5	q
q1425	10000	0.5	q
q1426	10400	0.5	q
q1427	10700	0.5	q
q1428	9800	0.5	q
q1429	10500	0.5	q
q1430	10600	0.5	q
q1431	11300	0.5	q
q1432	11700	0.5	q
q1433	11300	0.5	q
q1434	9790	0.5	q
q1435	8720	0.5	q
q1436	9220	0.5	q
q1437	10400	0.5	q
q1438	10200	0.5	q
q1439	9750	0.5	q
q1440	9420	0.5	q
q1441	8210	0.5	q
q1442	8140	0.5	q
q1443	8760	0.5	q
q1444	9460	0.5	q
q1445	8720	0.5	q
q1446	8450	0.5	q
q1447	8830	0.5	q
q1448	10100	0.5	q
q1449	11200	0.5	q
q1450	11900	0.5	q
q1451	12200	0.5	q
q1452	11100	0.5	q
q1453	10400	0.5	q
q1454	10300	0.5	q
q1455	9800	0.5	q
q1456	9450	0.5	q
q1457	9300	0.5	q
q1458	8780	0.5	q
q1459	8400	0.5	q
q1460	8400	0.5	q
q1461	8550	0.5	q
q1462	8760	0.5	q
q1463	9110	0.5	q
q1464	8960	0.5	q
q1465	8810	0.5	q
q1466	8560	0.5	q
q1467	8380	0.5	q
q1468	8480	0.5	q
q1469	8500	0.5	q
q1470	8560	0.5	q
q1471	8390	0.5	q
q1472	7920	0.5	q
q1473	7760	0.5	q
q1474	8050	0.5	q
q1475	8540	0.5	q
q1476	8460	0.5	q
q1477	8130	0.5	q
q1478	7680	0.5	q
q1479	5650	0.5	q
q1480	7350	0.5	q
q1481	7070	0.5	q
q1482	6820	0.5	q
q1483	7030	0.5	q
q1484	6970	0.5	q
q1485	6920	0.5	q
q1486	4500	0.5	q
q1487	6570	0.5	q
q1488	6670	0.5	q
q1489	6610	0.5	q
q1490	6500	0.5	q
q1491	6560	0.5	q
q1492	6460	0.5	q
q1493	1340	0.5	q
q1494	3290	0.5	q
q1495	3280	0.5	q
q1496	3170	0.5	q
q1497	2980	0.5	q
q1498	2990	0.5	q
q1499	3080	0.5	q
q1500	920	0.5	q
q1501	3110	0.5	q
q1502	3350	0.5	q
q1503	3340	0.5	q
q1504	3370	0.5	q
q1505	3330	0.5	q
q1506	3260	0.5	q
q1507	980	0.5	q
q1508	2990	0.5	q
q1509	2880	0.5	q
q1510	2740	0.5	q
q1511	2660	0.5	q
q1512	2710	0.5	q
q1513	2780	0.5	q
q1514	610	0.5	q
q1515	2420	0.5	q
q1516	2500	0.5	q
q1517	2870	0.5	q
q1518	2730	0.5	q
q1519	2630	0.5	q
q1520	2580	0.5	q
q1521	470	0.5	q
q1522	3170	0.5	q
q1523	3290	0.5	q
q1524	2560	0.5	q
q1525	2400	0.5	q
q1526	2240	0.5	q
q1527	2190	0.5	q
q1528	150	0.5	q
q1529	1830	0.5	q
q1530	1840	0.5	q
q1531	1800	0.5	q
q1532	1820	0.5	q
q1533	1820	0.5	q
q1534	1850	0.5	q
q1535	2930	0.5	q
q1536	1530	0.5	q
q1537	1580	0.5	q
q1538	1590	0.5	q
q1539	1590	0.5	q
q1540	1570	0.5	q
q1541	1450	0.5	q
q1542	2800	0.5	q
q1543	910	0.5	q
q1544	970	0.5	q
q1545	910	0.5	q
q1546	900	0.5	q
q1547	880	0.5	q
q1548	850	0.5	q
q1549	2540	0.5	q
q1550	740	0.5	q
q1551	710	0.5	q
q1552	5710	0.5	q
q1553	2020	0.5	q
q1554	730	0.5	q
q1555	240	0.5	q
q1556	2870	0.5	q
q1557	670	0.5	q
q1558	590	0.5	q
q1559	470	0.5	q
q1560	450	0.5	q
q1561	2190	0.5	q
q1562	2070	0.5	q
q1563	1970	0.5	q
q1564	1410	0.5	q
q1569	10900	0.5	q
q1570	9400	0.5	q
q1571	8600	0.5	q
q1572	6620	0.5	q
q1573	8100	0.5	q
q1574	7300	0.5	q
q1575	6870	0.5	q
q1576	6750	0.5	q
q1577	6510	0.5	q
q1578	5490	0.5	q
q1579	5250	0.5	q
q1580	4410	0.5	q
q1581	3080	0.5	q
q1582	2110	0.5	q
q1583	3950	0.5	q
q1584	3740	0.5	q
q1585	3570	0.5	q
q1586	3360	0.5	q
q1587	3200	0.5	q
q1588	3060	0.5	q
q1589	2930	0.5	q
q1590	2810	0.5	q
q1591	2720	0.5	q
q1592	2650	0.5	q
q1593	2600	0.5	q
q1594	2540	0.5	q
q1595	2470	0.5	q
q1596	2390	0.5	q
q1597	2310	0.5	q
q1598	2250	0.5	q
q1599	2190	0.5	q
q1600	2130	0.5	q
q1601	2070	0.5	q
q1602	2130	0.5	q
q1603	2250	0.5	q
q1604	2310	0.5	q
q1605	2200	0.5	q
q1606	2130	0.5	q
q1607	2100	0.5	q
q1608	2030	0.5	q
q1609	1970	0.5	q
q1610	1920	0.5	q
q1611	1900	0.5	q
q1612	1840	0.5	q
q1613	1800	0.5	q
q1614	1760	0.5	q
q1615	1720	0.5	q
q1616	1680	0.5	q
q1617	1660	0.5	q
q1618	1640	0.5	q
q1619	1630	0.5	q
q1620	1580	0.5	q
q1621	1660	0.5	q
q1622	8310	0.5	q
q1623	4410	0.5	q
q1624	3670	0.5	q
q1625	3480	0.5	q
q1626	3470	0.5	q
q1627	3680	0.5	q
q1628	4530	0.5	q
q1629	8700	0.5	q
q1630	7150	0.5	q
q1631	5910	0.5	q
q1632	5220	0.5	q
q1633	5890	0.5	q
q1634	5310	0.5	q
q1635	4800	0.5	q