pcf
* control data
restart  estimation
74  7748    18     0     1
2    2 single point   1   0   0
10.0  -3  0.3  0.03  10  lamforgive derforgive
10.0  10.0  0.001
0.1  noaui
   -2  0.001  4  4  0.005  4
0  0  0 parsaveitn reisaveitn
* singular value decomposition
1
74 5E-06
0
* parameter groups
ddsd         relative 0.025  0.0  switch  2.0 parabolic 1.0e-4 0.5 smaller
ddsw         relative 0.025  0.0  switch  2.0 parabolic 1.0e-4 0.5 smaller
ddgd         relative 0.025  0.0  switch  2.0 parabolic 1.0e-4 0.5 smaller
ddgw         relative 0.025  0.0  switch  2.0 parabolic 1.0e-4 0.5 smaller
rcsd         relative 0.025  0.0  switch  2.0 parabolic 1.0e-4 0.5 smaller
rcsw         relative 0.025  0.0  switch  2.0 parabolic 1.0e-4 0.5 smaller
rcrd         relative 0.025  0.0  switch  2.0 parabolic 1.0e-4 0.5 smaller
rcrw         relative 0.025  0.0  switch  2.0 parabolic 1.0e-4 0.5 smaller
rcgd         relative 0.025  0.0  switch  2.0 parabolic 1.0e-4 0.5 smaller
rcgw         relative 0.025  0.0  switch  2.0 parabolic 1.0e-4 0.5 smaller
tl           relative 0.025  0.0  switch  2.0 parabolic 1.0e-4 0.5 smaller
xw           relative 0.025  0.0  switch  2.0 parabolic 1.0e-4 0.5 smaller
yw           relative 0.025  0.0  switch  2.0 parabolic 1.0e-4 0.5 smaller
x            relative 0.025  0.0  switch  2.0 parabolic 1.0e-4 0.5 smaller
y            relative 0.025  0.0  switch  2.0 parabolic 1.0e-4 0.5 smaller
tlr			 relative 0.5  0.0  switch  2.0 parabolic 1.0e-4 0.5 smaller
tls			 relative 0.5  0.0  switch  2.0 parabolic 1.0e-4 0.5 smaller
beta			 relative 0.025  0.0  switch  2.0 parabolic 1.0e-4 0.5 smaller
* parameter data
ddsd        log	factor    1.100000      1.00e-08   1.1 ddsd              1.0000        0.0000      1
ddsw        log	factor    1.100000      1.00e-08   1.1 ddsw              1.0000        0.0000      1
ddgd        log	factor   6.7227045E-03  1.00e-08   1.1 ddgd              1.0000        0.0000      1
ddgw        log	factor   6.3396722E-03  1.00e-08   1.1 ddgw              1.0000        0.0000      1
rcs1d	log	factor   0.3126838      1.00e-08	1	rcsd	1	0	1
rcs1w	log	factor   0.5949675      1.00e-08	1	rcsw	1	0	1
rcs2d	log	factor    1.000000      1.00e-08	1	rcsd	1	0	1
rcs2w	log	factor    1.000000      1.00e-08	1	rcsw	1	0	1
rcs3d	log	factor   0.1498130      1.00e-08	1	rcsd	1	0	1
rcs3w	log	factor    1.000000      1.00e-08	1	rcsw	1	0	1
rcs4d	log	factor   2.3807164E-02  1.00e-08	1	rcsd	1	0	1
rcs4w	log	factor    1.000000      1.00e-08	1	rcsw	1	0	1
rcs5d	log	factor   2.5588017E-02  1.00e-08	1	rcsd	1	0	1
rcs5w	log	factor    1.000000      1.00e-08	1	rcsw	1	0	1
rcs6d	log	factor   2.1069275E-02  1.00e-08	1	rcsd	1	0	1
rcs6w	log	factor   0.8207687      1.00e-08	1	rcsw	1	0	1
rcs7d	log	factor   5.2101042E-03  1.00e-08	1	rcsd	1	0	1
rcs7w	log	factor   0.6789622      1.00e-08	1	rcsw	1	0	1
rcs8d	log	factor    1.000000      1.00e-08	1	rcsd	1	0	1
rcs8w	log	factor    1.000000      1.00e-08	1	rcsw	1	0	1
rcs9d	log	factor    1.000000      1.00e-08	1	rcsd	1	0	1
rcs9w	log	factor    1.000000      1.00e-08	1	rcsw	1	0	1
rcs10d	log	factor    1.000000      1.00e-08	1	rcsd	1	0	1
rcs10w	log	factor    1.000000      1.00e-08	1	rcsw	1	0	1
rcs11d	log	factor   7.7500122E-03  1.00e-08	1	rcsd	1	0	1
rcs11w	log	factor    1.000000      1.00e-08	1	rcsw	1	0	1
rcs12d	log	factor    1.000000      1.00e-08	1	rcsd	1	0	1
rcs12w	log	factor    1.000000      1.00e-08	1	rcsw	1	0	1
rcs13d	log	factor    1.000000      1.00e-08	1	rcsd	1	0	1
rcs13w	log	factor    1.000000      1.00e-08	1	rcsw	1	0	1
rcs14d	log	factor    1.000000      1.00e-08	1	rcsd	1	0	1
rcs14w	log	factor    1.000000      1.00e-08	1	rcsw	1	0	1
rcs15d	log	factor    1.000000      1.00e-08	1	rcsd	1	0	1
rcs15w	log	factor    1.000000      1.00e-08	1	rcsw	1	0	1
rcr1d	log	factor   7.5105079E-02  1.00e-08	1	rcrd	1	0	1
rcr1w	log	factor    1.000000      1.00e-08	1	rcrw	1	0	1
rcr2d	log	factor    1.000000      1.00e-08	1	rcrd	1	0	1
rcr2w	log	factor    1.000000      1.00e-08	1	rcrw	1	0	1
rcr3d	log	factor    1.000000      1.00e-08	1	rcrd	1	0	1
rcr3w	log	factor    1.000000      1.00e-08	1	rcrw	1	0	1
rcr4d	log	factor   0.9813467      1.00e-08	1	rcrd	1	0	1
rcr4w	log	factor    1.000000      1.00e-08	1	rcrw	1	0	1
rcr5d	log	factor   1.5039413E-02  1.00e-08	1	rcrd	1	0	1
rcr5w	log	factor    1.000000      1.00e-08	1	rcrw	1	0	1
rcr6d	log	factor   2.7912406E-02  1.00e-08	1	rcrd	1	0	1
rcr6w	log	factor   0.1247449      1.00e-08	1	rcrw	1	0	1
rcr7d	log	factor   1.4651835E-02  1.00e-08	1	rcrd	1	0	1
rcr7w	log	factor   9.9148692E-02  1.00e-08	1	rcrw	1	0	1
rcr8d	log	factor   6.9384381E-03  1.00e-08	1	rcrd	1	0	1
rcr8w	log	factor   3.7973985E-02  1.00e-08	1	rcrw	1	0	1
rcr9d	log	factor   0.2518207      1.00e-08	1	rcrd	1	0	1
rcr9w	log	factor   2.7093290E-02  1.00e-08	1	rcrw	1	0	1
rcr10d	log	factor   1.0547310E-02  1.00e-08	1	rcrd	1	0	1
rcr10w	log	factor   2.4592105E-02  1.00e-08	1	rcrw	1	0	1
rcr11d	log	factor   6.5306753E-03  1.00e-08	1	rcrd	1	0	1
rcr11w	log	factor   1.2740954E-02  1.00e-08	1	rcrw	1	0	1
rcr12d	log	factor   4.0428201E-03  1.00e-08	1	rcrd	1	0	1
rcr12w	log	factor   1.0283263E-02  1.00e-08	1	rcrw	1	0	1
rcr13d	log	factor   6.7463016E-03  1.00e-08	1	rcrd	1	0	1
rcr13w	log	factor   0.8587654      1.00e-08	1	rcrw	1	0	1
rcr14d	log	factor   1.1275521E-02  1.00e-08	1	rcrd	1	0	1
rcr14w	log	factor   0.9804197      1.00e-08	1	rcrw	1	0	1
rcr15d	log	factor   2.2188021E-02  1.00e-08	1	rcrd	1	0	1
rcr15w	log	factor   8.3272444E-02  1.00e-08	1	rcrw	1	0	1
rcgd	log	factor   2.1923123E-02  1.00e-08	1	rcgd	1	0	1
rcgw	log	factor   0.3569354      1.00e-08	1	rcgw	1	0	1
tl          log	factor   6.6757772E-03  1.00e-08    5 tl              1.0000        0.0000      1
xw          log	factor    1.097229      1.00e-08   2.1 xw               1.0000        0.0000      1
yw          log	factor   9.0362553E-03  1.00e-08    1 yw               1.0000        0.0000      1
x           log	factor   0.9631176      1.00e-08   2.3 x               1.0000        0.0000      1
y           log	factor   6.1447742E-03  1.00e-08    1 y               1.0000        0.0000      1
tlr			log	factor   3.2400000E-02  1.00e-08    10 tlr               1.0000        0.0000      1
tls			log	factor   3.0800000E-02  1.00e-08    30 tls               1.0000        0.0000      1
beta	log	factor   0.5100000      2.00e-01	5.1e-01	beta	1	0	1
* observation groups
q
* observation data
q3	61603	1.83E-05	q
q4	58703	1.83E-05	q
q5	56903	1.83E-05	q
q6	56103	1.83E-05	q
q7	53403	1.83E-05	q
q8	49903	1.83E-05	q
q9	47303	1.83E-05	q
q10	46203	1.83E-05	q
q11	46203	1.83E-05	q
q12	47803	1.83E-05	q
q13	47003	1.83E-05	q
q14	46103	1.83E-05	q
q15	45803	1.83E-05	q
q16	42103	1.83E-05	q
q17	42803	1.83E-05	q
q18	43203	1.83E-05	q
q19	42803	1.83E-05	q
q20	41903	1.83E-05	q
q21	40903	1.83E-05	q
q22	40203	1.83E-05	q
q23	41003	1.83E-05	q
q24	43203	1.83E-05	q
q25	42903	1.83E-05	q
q26	43503	1.83E-05	q
q27	46303	1.83E-05	q
q28	46103	1.83E-05	q
q29	45103	1.83E-05	q
q30	44703	1.83E-05	q
q31	44503	1.83E-05	q
q32	42803	1.83E-05	q
q33	41503	1.83E-05	q
q34	40603	1.83E-05	q
q35	41603	1.83E-05	q
q36	40703	1.83E-05	q
q37	40603	1.83E-05	q
q38	41503	1.83E-05	q
q39	40603	1.83E-05	q
q40	38303	1.83E-05	q
q41	38403	1.83E-05	q
q42	38803	1.83E-05	q
q43	183003	1.83E-05	q
q44	73903	1.83E-05	q
q45	61503	1.83E-05	q
q46	51403	1.83E-05	q
q47	39703	1.83E-05	q
q48	38103	1.83E-05	q
q49	36803	1.83E-05	q
q50	34603	1.83E-05	q
q51	34903	1.83E-05	q
q52	34003	1.83E-05	q
q53	38103	1.83E-05	q
q54	40503	1.83E-05	q
q55	41703	1.83E-05	q
q56	40603	1.83E-05	q
q57	37303	1.83E-05	q
q58	43403	1.83E-05	q
q59	37503	1.83E-05	q
q60	34803	1.83E-05	q
q61	32803	1.83E-05	q
q62	33103	1.83E-05	q
q63	37903	1.83E-05	q
q64	36803	1.83E-05	q
q65	35803	1.83E-05	q
q66	35803	1.83E-05	q
q67	36303	1.83E-05	q
q68	36303	1.83E-05	q
q69	37203	1.83E-05	q
q70	36303	1.83E-05	q
q71	36603	1.83E-05	q
q72	36203	1.83E-05	q
q73	35203	1.83E-05	q
q74	33203	1.83E-05	q
q75	35403	1.83E-05	q
q76	34303	1.83E-05	q
q77	32403	1.83E-05	q
q78	28903	1.83E-05	q
q79	26903	1.83E-05	q
q80	25203	1.83E-05	q
q81	22403	1.83E-05	q
q82	20803	1.83E-05	q
q83	19703	1.83E-05	q
q84	18103	1.83E-05	q
q85	17203	1.83E-05	q
q86	16003	1.83E-05	q
q87	13803	1.83E-05	q
q88	12503	1.83E-05	q
q89	11803	1.83E-05	q
q90	10403	1.83E-05	q
q91	9973	1.83E-05	q
q92	12603	1.83E-05	q
q93	12803	1.83E-05	q
q94	13203	1.83E-05	q
q95	12703	1.83E-05	q
q96	12503	1.83E-05	q
q97	11603	1.83E-05	q
q98	11603	1.83E-05	q
q99	11103	1.83E-05	q
q104	15103	1.83E-05	q
q105	26103	1.83E-05	q
q106	26003	1.83E-05	q
q107	18903	1.83E-05	q
q108	17103	1.83E-05	q
q109	16103	1.83E-05	q
q110	15303	1.83E-05	q
q111	14703	1.83E-05	q
q112	14003	1.83E-05	q
q113	13703	1.83E-05	q
q114	13403	1.83E-05	q
q115	13303	1.83E-05	q
q116	13403	1.83E-05	q
q117	13503	1.83E-05	q
q118	13203	1.83E-05	q
q119	12703	1.83E-05	q
q120	12403	1.83E-05	q
q121	12303	1.83E-05	q
q122	14503	1.83E-05	q
q123	14403	1.83E-05	q
q124	13903	1.83E-05	q
q125	12703	1.83E-05	q
q126	12403	1.83E-05	q
q127	12203	1.83E-05	q
q128	12003	1.83E-05	q
q129	11703	1.83E-05	q
q130	11603	1.83E-05	q
q131	11703	1.83E-05	q
q132	11703	1.83E-05	q
q133	11503	1.83E-05	q
q134	11603	1.83E-05	q
q135	11603	1.83E-05	q
q136	13803	1.83E-05	q
q137	13003	1.83E-05	q
q138	12103	1.83E-05	q
q139	11703	1.83E-05	q
q140	11503	1.83E-05	q
q141	11303	1.83E-05	q
q142	11103	1.83E-05	q
q143	10903	1.83E-05	q
q144	10703	1.83E-05	q
q145	11903	1.83E-05	q
q146	12803	1.83E-05	q
q147	12103	1.83E-05	q
q148	11703	1.83E-05	q
q149	11503	1.83E-05	q
q150	13103	1.83E-05	q
q151	12603	1.83E-05	q
q152	11603	1.83E-05	q
q153	11303	1.83E-05	q
q154	11303	1.83E-05	q
q155	11103	1.83E-05	q
q156	11203	1.83E-05	q
q157	15903	1.83E-05	q
q158	14303	1.83E-05	q
q159	13003	1.83E-05	q
q160	12003	1.83E-05	q
q161	12203	1.83E-05	q
q162	15803	1.83E-05	q
q163	14403	1.83E-05	q
q164	84303	1.83E-05	q
q165	306003	1.83E-05	q
q166	210003	1.83E-05	q
q167	99803	1.83E-05	q
q168	63203	1.83E-05	q
q169	47303	1.83E-05	q
q170	28003	1.83E-05	q
q171	21503	1.83E-05	q
q172	21503	1.83E-05	q
q173	191003	1.83E-05	q
q175	240003	1.83E-05	q
q176	200003	1.83E-05	q
q177	145003	1.83E-05	q
q178	106003	1.83E-05	q
q179	132003	1.83E-05	q
q180	121003	1.83E-05	q
q181	120003	1.83E-05	q
q183	462003	1.83E-05	q
q184	237003	1.83E-05	q
q185	157003	1.83E-05	q
q186	128003	1.83E-05	q
q187	109003	1.83E-05	q
q188	102003	1.83E-05	q
q189	149003	1.83E-05	q
q190	114003	1.83E-05	q
q191	96603	1.83E-05	q
q192	83003	1.83E-05	q
q193	73703	1.83E-05	q
q194	66703	1.83E-05	q
q195	62603	1.83E-05	q
q196	58703	1.83E-05	q
q197	55003	1.83E-05	q
q198	53303	1.83E-05	q
q199	53003	1.83E-05	q
q200	50803	1.83E-05	q
q201	48703	1.83E-05	q
q202	67203	1.83E-05	q
q203	70503	1.83E-05	q
q204	57903	1.83E-05	q
q205	53203	1.83E-05	q
q206	52603	1.83E-05	q
q207	51303	1.83E-05	q
q208	52003	1.83E-05	q
q209	51803	1.83E-05	q
q210	49703	1.83E-05	q
q211	48903	1.83E-05	q
q212	48803	1.83E-05	q
q213	47803	1.83E-05	q
q214	46003	1.83E-05	q
q215	46303	1.83E-05	q
q216	45003	1.83E-05	q
q217	44903	1.83E-05	q
q218	43003	1.83E-05	q
q220	42903	1.83E-05	q
q221	44603	1.83E-05	q
q222	42803	1.83E-05	q
q223	42203	1.83E-05	q
q224	41103	1.83E-05	q
q225	41003	1.83E-05	q
q227	38803	1.83E-05	q
q228	36803	1.83E-05	q
q229	35103	1.83E-05	q
q230	34503	1.83E-05	q
q231	36303	1.83E-05	q
q232	38303	1.83E-05	q
q233	37603	1.83E-05	q
q234	40103	1.83E-05	q
q235	40003	1.83E-05	q
q236	42203	1.83E-05	q
q237	39303	1.83E-05	q
q238	37403	1.83E-05	q
q239	35603	1.83E-05	q
q240	34303	1.83E-05	q
q241	32903	1.83E-05	q
q242	31103	1.83E-05	q
q243	33603	1.83E-05	q
q244	31303	1.83E-05	q
q245	30403	1.83E-05	q
q246	31003	1.83E-05	q
q247	31803	1.83E-05	q
q248	33703	1.83E-05	q
q249	35303	1.83E-05	q
q250	36403	1.83E-05	q
q251	35203	1.83E-05	q
q252	49503	1.83E-05	q
q253	118003	1.83E-05	q
q254	102003	1.83E-05	q
q255	81803	1.83E-05	q
q256	70603	1.83E-05	q
q257	72803	1.83E-05	q
q258	71603	1.83E-05	q
q259	68703	1.83E-05	q
q260	73003	1.83E-05	q
q261	94303	1.83E-05	q
q262	107003	1.83E-05	q
q263	102003	1.83E-05	q
q264	122003	1.83E-05	q
q265	102003	1.83E-05	q
q266	90903	1.83E-05	q
q267	84803	1.83E-05	q
q268	80903	1.83E-05	q
q269	78903	1.83E-05	q
q270	83303	1.83E-05	q
q271	90703	1.83E-05	q
q272	98703	1.83E-05	q
q273	98703	1.83E-05	q
q276	94803	1.83E-05	q
q277	83103	1.83E-05	q
q278	81803	1.83E-05	q
q279	79603	1.83E-05	q
q280	80303	1.83E-05	q
q281	83503	1.83E-05	q
q282	85503	1.83E-05	q
q283	75903	1.83E-05	q
q284	73503	1.83E-05	q
q285	73603	1.83E-05	q
q286	70703	1.83E-05	q
q287	67903	1.83E-05	q
q288	73303	1.83E-05	q
q289	78503	1.83E-05	q
q290	78903	1.83E-05	q
q291	85603	1.83E-05	q
q292	93703	1.83E-05	q
q293	99503	1.83E-05	q
q294	101003	1.83E-05	q
q295	110003	1.83E-05	q
q296	102003	1.83E-05	q
q297	99903	1.83E-05	q
q298	102003	1.83E-05	q
q299	91803	1.83E-05	q
q300	83003	1.83E-05	q
q301	86103	1.83E-05	q
q302	95803	1.83E-05	q
q303	107003	1.83E-05	q
q304	116003	1.83E-05	q
q305	108003	1.83E-05	q
q306	99503	1.83E-05	q
q307	102003	1.83E-05	q
q308	99703	1.83E-05	q
q311	83303	1.83E-05	q
q312	89103	1.83E-05	q
q313	83303	1.83E-05	q
q314	74103	1.83E-05	q
q315	69103	1.83E-05	q
q316	68603	1.83E-05	q
q317	65303	1.83E-05	q
q318	64203	1.83E-05	q
q319	63103	1.83E-05	q
q320	67903	1.83E-05	q
q321	77203	1.83E-05	q
q322	93903	1.83E-05	q
q323	118003	1.83E-05	q
q324	132003	1.83E-05	q
q325	134003	1.83E-05	q
q326	144003	1.83E-05	q
q327	154003	1.83E-05	q
q328	158003	1.83E-05	q
q329	168003	1.83E-05	q
q330	193003	1.83E-05	q
q331	231003	1.83E-05	q
q332	277003	1.83E-05	q
q333	318003	1.83E-05	q
q334	324003	1.83E-05	q
q335	241003	1.83E-05	q
q336	241003	1.83E-05	q
q337	195003	1.83E-05	q
q338	177003	1.83E-05	q
q339	167003	1.83E-05	q
q340	170003	1.83E-05	q
q341	188003	1.83E-05	q
q342	202003	1.83E-05	q
q343	197003	1.83E-05	q
q344	193003	1.83E-05	q
q345	189003	1.83E-05	q
q346	185003	1.83E-05	q
q347	181003	1.83E-05	q
q348	178003	1.83E-05	q
q349	172003	1.83E-05	q
q350	157003	1.83E-05	q
q351	152003	1.83E-05	q
q352	153003	1.83E-05	q
q353	178003	1.83E-05	q
q354	202003	1.83E-05	q
q355	199003	1.83E-05	q
q356	178003	1.83E-05	q
q357	162003	1.83E-05	q
q358	149003	1.83E-05	q
q359	150003	1.83E-05	q
q360	134003	1.83E-05	q
q361	120003	1.83E-05	q
q362	117003	1.83E-05	q
q363	117003	1.83E-05	q
q364	118003	1.83E-05	q
q365	122003	1.83E-05	q
q366	124003	1.83E-05	q
q367	119003	1.83E-05	q
q368	126003	1.83E-05	q
q369	125003	1.83E-05	q
q370	122003	1.83E-05	q
q371	123003	1.83E-05	q
q372	122003	1.83E-05	q
q373	118003	1.83E-05	q
q374	125003	1.83E-05	q
q375	114003	1.83E-05	q
q376	97803	1.83E-05	q
q377	87003	1.83E-05	q
q378	90303	1.83E-05	q
q379	95203	1.83E-05	q
q380	96103	1.83E-05	q
q381	100003	1.83E-05	q
q382	102003	1.83E-05	q
q383	97003	1.83E-05	q
q384	91503	1.83E-05	q
q385	85503	1.83E-05	q
q386	85603	1.83E-05	q
q387	85403	1.83E-05	q
q388	80303	1.83E-05	q
q389	77803	1.83E-05	q
q390	78903	1.83E-05	q
q391	78503	1.83E-05	q
q392	76303	1.83E-05	q
q393	75603	1.83E-05	q
q394	69703	1.83E-05	q
q395	68303	1.83E-05	q
q396	66303	1.83E-05	q
q397	58903	1.83E-05	q
q398	60203	1.83E-05	q
q399	61403	1.83E-05	q
q400	62303	1.83E-05	q
q401	62703	1.83E-05	q
q402	63903	1.83E-05	q
q403	61803	1.83E-05	q
q404	57503	1.83E-05	q
q405	55603	1.83E-05	q
q406	55303	1.83E-05	q
q407	55103	1.83E-05	q
q408	54003	1.83E-05	q
q409	52303	1.83E-05	q
q410	55603	1.83E-05	q
q411	55803	1.83E-05	q
q412	56703	1.83E-05	q
q413	58403	1.83E-05	q
q414	59103	1.83E-05	q
q415	59103	1.83E-05	q
q416	58703	1.83E-05	q
q417	57103	1.83E-05	q
q418	53003	1.83E-05	q
q419	49603	1.83E-05	q
q420	47603	1.83E-05	q
q421	45903	1.83E-05	q
q422	44503	1.83E-05	q
q423	42803	1.83E-05	q
q424	41803	1.83E-05	q
q425	41203	1.83E-05	q
q426	41803	1.83E-05	q
q427	40903	1.83E-05	q
q428	40003	1.83E-05	q
q429	40303	1.83E-05	q
q430	40903	1.83E-05	q
q431	39103	1.83E-05	q
q432	38303	1.83E-05	q
q433	38103	1.83E-05	q
q434	37403	1.83E-05	q
q435	36203	1.83E-05	q
q436	35403	1.83E-05	q
q437	35103	1.83E-05	q
q438	34603	1.83E-05	q
q439	33803	1.83E-05	q
q440	33503	1.83E-05	q
q441	33203	1.83E-05	q
q442	32103	1.83E-05	q
q443	31703	1.83E-05	q
q444	30603	1.83E-05	q
q445	30003	1.83E-05	q
q446	30303	1.83E-05	q
q447	32303	1.83E-05	q
q448	28503	1.83E-05	q
q449	26003	1.83E-05	q
q450	25303	1.83E-05	q
q451	24503	1.83E-05	q
q452	24003	1.83E-05	q
q453	23703	1.83E-05	q
q454	23403	1.83E-05	q
q455	23103	1.83E-05	q
q456	23103	1.83E-05	q
q457	22103	1.83E-05	q
q458	21603	1.83E-05	q
q459	21503	1.83E-05	q
q460	21503	1.83E-05	q
q462	26103	1.83E-05	q
q463	20403	1.83E-05	q
q464	19403	1.83E-05	q
q465	18603	1.83E-05	q
q466	16503	1.83E-05	q
q467	4683	1.83E-05	q
q468	4623	1.83E-05	q
q469	16703	1.83E-05	q
q470	19003	1.83E-05	q
q471	9223	1.83E-05	q
q472	7233	1.83E-05	q
q473	6283	1.83E-05	q
q474	5263	1.83E-05	q
q475	4723	1.83E-05	q
q478	4673	1.83E-05	q
q479	6523	1.83E-05	q
q480	8983	1.83E-05	q
q481	13703	1.83E-05	q
q482	13103	1.83E-05	q
q483	12103	1.83E-05	q
q484	11003	1.83E-05	q
q486	9493	1.83E-05	q
q487	9263	1.83E-05	q
q488	9083	1.83E-05	q
q489	9123	1.83E-05	q
q490	9133	1.83E-05	q
q491	8943	1.83E-05	q
q493	18503	1.83E-05	q
q494	14203	1.83E-05	q
q495	11103	1.83E-05	q
q496	9693	1.83E-05	q
q497	8603	1.83E-05	q
q498	7783	1.83E-05	q
q501	12603	1.83E-05	q
q502	10503	1.83E-05	q
q503	29403	1.83E-05	q
q504	73503	1.83E-05	q
q505	32203	1.83E-05	q
q506	24803	1.83E-05	q
q507	21503	1.83E-05	q
q508	19803	1.83E-05	q
q509	19403	1.83E-05	q
q510	19703	1.83E-05	q
q511	19103	1.83E-05	q
q512	187003	1.83E-05	q
q513	179003	1.83E-05	q
q514	133003	1.83E-05	q
q515	243003	1.83E-05	q
q516	143003	1.83E-05	q
q518	86603	1.83E-05	q
q519	77003	1.83E-05	q
q520	69403	1.83E-05	q
q521	64203	1.83E-05	q
q522	59703	1.83E-05	q
q523	56903	1.83E-05	q
q524	60303	1.83E-05	q
q525	64203	1.83E-05	q
q526	61403	1.83E-05	q
q527	59603	1.83E-05	q
q528	58403	1.83E-05	q
q529	54803	1.83E-05	q
q530	70303	1.83E-05	q
q531	343003	1.83E-05	q
q532	172003	1.83E-05	q
q533	114003	1.83E-05	q
q534	86503	1.83E-05	q
q535	72303	1.83E-05	q
q536	61203	1.83E-05	q
q537	53603	1.83E-05	q
q538	48103	1.83E-05	q
q539	43403	1.83E-05	q
q540	40503	1.83E-05	q
q541	36103	1.83E-05	q
q542	33903	1.83E-05	q
q543	32503	1.83E-05	q
q544	31603	1.83E-05	q
q545	30103	1.83E-05	q
q546	28203	1.83E-05	q
q547	26303	1.83E-05	q
q548	28003	1.83E-05	q
q549	32903	1.83E-05	q
q550	63803	1.83E-05	q
q551	105003	1.83E-05	q
q552	70403	1.83E-05	q
q553	59203	1.83E-05	q
q554	50803	1.83E-05	q
q555	72503	1.83E-05	q
q556	72403	1.83E-05	q
q557	61203	1.83E-05	q
q558	54703	1.83E-05	q
q559	138003	1.83E-05	q
q560	412003	1.83E-05	q
q561	230003	1.83E-05	q
q562	160003	1.83E-05	q
q563	129003	1.83E-05	q
q564	124003	1.83E-05	q
q565	188003	1.83E-05	q
q566	495003	1.83E-05	q
q567	280003	1.83E-05	q
q568	201003	1.83E-05	q
q569	159003	1.83E-05	q
q570	135003	1.83E-05	q
q571	118003	1.83E-05	q
q572	104003	1.83E-05	q
q573	93403	1.83E-05	q
q574	85803	1.83E-05	q
q575	80803	1.83E-05	q
q576	92803	1.83E-05	q
q577	202003	1.83E-05	q
q578	184003	1.83E-05	q
q579	154003	1.83E-05	q
q580	141003	1.83E-05	q
q581	125003	1.83E-05	q
q582	115003	1.83E-05	q
q583	106003	1.83E-05	q
q584	94403	1.83E-05	q
q585	88003	1.83E-05	q
q586	85303	1.83E-05	q
q587	82503	1.83E-05	q
q588	81403	1.83E-05	q
q589	81103	1.83E-05	q
q590	76503	1.83E-05	q
q591	72103	1.83E-05	q
q592	68603	1.83E-05	q
q593	63703	1.83E-05	q
q594	59703	1.83E-05	q
q595	55703	1.83E-05	q
q596	52803	1.83E-05	q
q597	50003	1.83E-05	q
q598	48703	1.83E-05	q
q599	53603	1.83E-05	q
q600	60403	1.83E-05	q
q601	65619	1.83E-05	q
q602	66919	1.83E-05	q
q603	80919	1.83E-05	q
q604	94719	1.83E-05	q
q605	80219	1.83E-05	q
q606	145019	1.83E-05	q
q607	678019	1.83E-05	q
q608	403019	1.83E-05	q
q609	239019	1.83E-05	q
q610	167019	1.83E-05	q
q611	131019	1.83E-05	q
q612	112019	1.83E-05	q
q613	101019	1.83E-05	q
q614	91219	1.83E-05	q
q615	83919	1.83E-05	q
q616	77419	1.83E-05	q
q617	71819	1.83E-05	q
q618	66219	1.83E-05	q
q619	63419	1.83E-05	q
q620	65319	1.83E-05	q
q621	66619	1.83E-05	q
q622	63719	1.83E-05	q
q623	62419	1.83E-05	q
q624	60119	1.83E-05	q
q625	60419	1.83E-05	q
q626	61719	1.83E-05	q
q627	60619	1.83E-05	q
q628	59219	1.83E-05	q
q629	59419	1.83E-05	q
q630	62019	1.83E-05	q
q631	65019	1.83E-05	q
q632	65019	1.83E-05	q
q633	63419	1.83E-05	q
q634	62419	1.83E-05	q
q635	61819	1.83E-05	q
q636	59419	1.83E-05	q
q637	54119	1.83E-05	q
q638	50619	1.83E-05	q
q639	49019	1.83E-05	q
q640	47319	1.83E-05	q
q641	50519	1.83E-05	q
q642	55319	1.83E-05	q
q643	57419	1.83E-05	q
q644	60619	1.83E-05	q
q645	64919	1.83E-05	q
q646	63119	1.83E-05	q
q647	57119	1.83E-05	q
q648	57419	1.83E-05	q
q649	58119	1.83E-05	q
q650	63619	1.83E-05	q
q651	66419	1.83E-05	q
q652	75319	1.83E-05	q
q653	83919	1.83E-05	q
q654	94019	1.83E-05	q
q655	103019	1.83E-05	q
q656	103019	1.83E-05	q
q657	101019	1.83E-05	q
q658	96319	1.83E-05	q
q659	82919	1.83E-05	q
q660	80319	1.83E-05	q
q661	83019	1.83E-05	q
q662	88019	1.83E-05	q
q663	85719	1.83E-05	q
q664	82819	1.83E-05	q
q665	73719	1.83E-05	q
q666	66819	1.83E-05	q
q667	62019	1.83E-05	q
q668	61219	1.83E-05	q
q669	68419	1.83E-05	q
q670	79619	1.83E-05	q
q671	89919	1.83E-05	q
q672	102019	1.83E-05	q
q673	110019	1.83E-05	q
q674	102019	1.83E-05	q
q675	95519	1.83E-05	q
q676	89419	1.83E-05	q
q677	82319	1.83E-05	q
q678	77619	1.83E-05	q
q679	75519	1.83E-05	q
q680	70319	1.83E-05	q
q681	69619	1.83E-05	q
q682	73219	1.83E-05	q
q683	85019	1.83E-05	q
q684	90719	1.83E-05	q
q685	92319	1.83E-05	q
q686	94419	1.83E-05	q
q687	102019	1.83E-05	q
q688	107019	1.83E-05	q
q689	113019	1.83E-05	q
q690	112019	1.83E-05	q
q691	111019	1.83E-05	q
q692	118019	1.83E-05	q
q693	119019	1.83E-05	q
q694	96319	1.83E-05	q
q695	94219	1.83E-05	q
q696	101019	1.83E-05	q
q697	108019	1.83E-05	q
q698	111019	1.83E-05	q
q699	113019	1.83E-05	q
q700	117019	1.83E-05	q
q701	127019	1.83E-05	q
q702	121019	1.83E-05	q
q703	113019	1.83E-05	q
q704	115019	1.83E-05	q
q705	122019	1.83E-05	q
q706	126019	1.83E-05	q
q707	125019	1.83E-05	q
q708	125019	1.83E-05	q
q709	130019	1.83E-05	q
q710	133019	1.83E-05	q
q711	132019	1.83E-05	q
q712	133019	1.83E-05	q
q713	136019	1.83E-05	q
q714	132019	1.83E-05	q
q715	148019	1.83E-05	q
q716	168019	1.83E-05	q
q719	158019	1.83E-05	q
q720	143019	1.83E-05	q
q721	130019	1.83E-05	q
q722	119019	1.83E-05	q
q723	119019	1.83E-05	q
q724	131019	1.83E-05	q
q725	137019	1.83E-05	q
q726	133019	1.83E-05	q
q727	126019	1.83E-05	q
q728	117019	1.83E-05	q
q729	113019	1.83E-05	q
q730	110019	1.83E-05	q
q731	108019	1.83E-05	q
q732	105019	1.83E-05	q
q733	100019	1.83E-05	q
q734	99019	1.83E-05	q
q735	95619	1.83E-05	q
q736	87019	1.83E-05	q
q737	88919	1.83E-05	q
q738	89719	1.83E-05	q
q739	88419	1.83E-05	q
q740	84619	1.83E-05	q
q741	83519	1.83E-05	q
q742	82719	1.83E-05	q
q743	81019	1.83E-05	q
q744	79419	1.83E-05	q
q745	75019	1.83E-05	q
q746	71219	1.83E-05	q
q747	72319	1.83E-05	q
q748	71619	1.83E-05	q
q749	69519	1.83E-05	q
q750	69019	1.83E-05	q
q751	66519	1.83E-05	q
q752	63719	1.83E-05	q
q753	62119	1.83E-05	q
q754	61219	1.83E-05	q
q755	60019	1.83E-05	q
q756	58719	1.83E-05	q
q757	56519	1.83E-05	q
q758	53919	1.83E-05	q
q759	54219	1.83E-05	q
q760	54019	1.83E-05	q
q761	53419	1.83E-05	q
q762	52919	1.83E-05	q
q763	52219	1.83E-05	q
q764	52219	1.83E-05	q
q765	53319	1.83E-05	q
q766	55519	1.83E-05	q
q767	53919	1.83E-05	q
q768	54419	1.83E-05	q
q769	54519	1.83E-05	q
q770	53019	1.83E-05	q
q771	51919	1.83E-05	q
q772	51019	1.83E-05	q
q773	50119	1.83E-05	q
q774	49219	1.83E-05	q
q775	48919	1.83E-05	q
q776	48519	1.83E-05	q
q777	49819	1.83E-05	q
q778	50819	1.83E-05	q
q779	50519	1.83E-05	q
q780	49619	1.83E-05	q
q781	47619	1.83E-05	q
q782	47619	1.83E-05	q
q783	47119	1.83E-05	q
q784	47419	1.83E-05	q
q785	47619	1.83E-05	q
q786	47319	1.83E-05	q
q787	46519	1.83E-05	q
q788	45919	1.83E-05	q
q789	45119	1.83E-05	q
q790	44919	1.83E-05	q
q791	42519	1.83E-05	q
q792	42619	1.83E-05	q
q793	42919	1.83E-05	q
q794	42719	1.83E-05	q
q795	42619	1.83E-05	q
q796	41919	1.83E-05	q
q797	40819	1.83E-05	q
q798	40919	1.83E-05	q
q799	40119	1.83E-05	q
q800	39719	1.83E-05	q
q801	39619	1.83E-05	q
q802	39119	1.83E-05	q
q803	38619	1.83E-05	q
q804	36419	1.83E-05	q
q805	38619	1.83E-05	q
q806	64619	1.83E-05	q
q807	40219	1.83E-05	q
q808	34819	1.83E-05	q
q809	32619	1.83E-05	q
q810	30319	1.83E-05	q
q811	29319	1.83E-05	q
q812	27419	1.83E-05	q
q813	26619	1.83E-05	q
q814	25619	1.83E-05	q
q815	25119	1.83E-05	q
q816	24319	1.83E-05	q
q817	24119	1.83E-05	q
q818	27019	1.83E-05	q
q819	33819	1.83E-05	q
q820	36919	1.83E-05	q
q821	34719	1.83E-05	q
q822	33419	1.83E-05	q
q823	31219	1.83E-05	q
q824	23119	1.83E-05	q
q825	22019	1.83E-05	q
q826	19419	1.83E-05	q
q827	22419	1.83E-05	q
q828	20519	1.83E-05	q
q829	18219	1.83E-05	q
q830	17219	1.83E-05	q
q831	16619	1.83E-05	q
q832	17319	1.83E-05	q
q833	16619	1.83E-05	q
q834	16319	1.83E-05	q
q835	15819	1.83E-05	q
q836	15919	1.83E-05	q
q837	18019	1.83E-05	q
q838	16119	1.83E-05	q
q839	15319	1.83E-05	q
q840	14919	1.83E-05	q
q841	14619	1.83E-05	q
q842	14419	1.83E-05	q
q845	15819	1.83E-05	q
q846	16219	1.83E-05	q
q847	15419	1.83E-05	q
q848	14719	1.83E-05	q
q849	14619	1.83E-05	q
q850	40219	1.83E-05	q
q851	28819	1.83E-05	q
q852	22719	1.83E-05	q
q853	19219	1.83E-05	q
q854	18019	1.83E-05	q
q855	17119	1.83E-05	q
q856	16319	1.83E-05	q
q857	16019	1.83E-05	q
q858	15719	1.83E-05	q
q859	15419	1.83E-05	q
q860	15119	1.83E-05	q
q861	15019	1.83E-05	q
q862	15019	1.83E-05	q
q864	15219	1.83E-05	q
q865	63319	1.83E-05	q
q866	95219	1.83E-05	q
q867	62319	1.83E-05	q
q868	45719	1.83E-05	q
q869	38719	1.83E-05	q
q870	36019	1.83E-05	q
q871	32119	1.83E-05	q
q872	29419	1.83E-05	q
q873	27919	1.83E-05	q
q874	27219	1.83E-05	q
q875	28319	1.83E-05	q
q878	130019	1.83E-05	q
q879	91619	1.83E-05	q
q880	74219	1.83E-05	q
q881	65219	1.83E-05	q
q882	63619	1.83E-05	q
q883	86419	1.83E-05	q
q884	102019	1.83E-05	q
q887	158019	1.83E-05	q
q888	120019	1.83E-05	q
q889	96719	1.83E-05	q
q890	82119	1.83E-05	q
q891	73319	1.83E-05	q
q892	67519	1.83E-05	q
q893	62519	1.83E-05	q
q894	59319	1.83E-05	q
q895	56819	1.83E-05	q
q896	54819	1.83E-05	q
q897	53119	1.83E-05	q
q898	51319	1.83E-05	q
q899	49919	1.83E-05	q
q900	48619	1.83E-05	q
q901	47719	1.83E-05	q
q902	46919	1.83E-05	q
q903	46919	1.83E-05	q
q904	46719	1.83E-05	q
q905	47819	1.83E-05	q
q906	49919	1.83E-05	q
q907	52919	1.83E-05	q
q908	52219	1.83E-05	q
q909	56319	1.83E-05	q
q910	55919	1.83E-05	q
q911	51519	1.83E-05	q
q912	47719	1.83E-05	q
q913	45119	1.83E-05	q
q914	43519	1.83E-05	q
q915	41819	1.83E-05	q
q916	40219	1.83E-05	q
q917	39619	1.83E-05	q
q918	39019	1.83E-05	q
q919	38319	1.83E-05	q
q920	38119	1.83E-05	q
q921	36719	1.83E-05	q
q922	36019	1.83E-05	q
q923	35719	1.83E-05	q
q924	35119	1.83E-05	q
q925	36219	1.83E-05	q
q926	37319	1.83E-05	q
q927	38219	1.83E-05	q
q928	37919	1.83E-05	q
q929	38619	1.83E-05	q
q930	38619	1.83E-05	q
q931	55319	1.83E-05	q
q932	147019	1.83E-05	q
q933	141019	1.83E-05	q
q934	104019	1.83E-05	q
q935	111019	1.83E-05	q
q936	100019	1.83E-05	q
q937	86019	1.83E-05	q
q938	76719	1.83E-05	q
q939	69619	1.83E-05	q
q940	68319	1.83E-05	q
q941	68019	1.83E-05	q
q942	67519	1.83E-05	q
q943	62219	1.83E-05	q
q944	59319	1.83E-05	q
q945	56919	1.83E-05	q
q946	54219	1.83E-05	q
q947	51519	1.83E-05	q
q948	54719	1.83E-05	q
q949	270019	1.83E-05	q
q950	615019	1.83E-05	q
q951	382019	1.83E-05	q
q952	245019	1.83E-05	q
q953	192019	1.83E-05	q
q954	170019	1.83E-05	q
q955	152019	1.83E-05	q
q956	141019	1.83E-05	q
q957	133019	1.83E-05	q
q958	124019	1.83E-05	q
q959	118019	1.83E-05	q
q960	118019	1.83E-05	q
q961	146019	1.83E-05	q
q962	132019	1.83E-05	q
q963	122019	1.83E-05	q
q964	114019	1.83E-05	q
q965	116019	1.83E-05	q
q966	180019	1.83E-05	q
q969	445019	1.83E-05	q
q970	351019	1.83E-05	q
q971	298019	1.83E-05	q
q972	242019	1.83E-05	q
q973	200019	1.83E-05	q
q974	167019	1.83E-05	q
q975	141019	1.83E-05	q
q976	126019	1.83E-05	q
q977	143019	1.83E-05	q
q978	177019	1.83E-05	q
q979	152019	1.83E-05	q
q980	122019	1.83E-05	q
q981	107019	1.83E-05	q
q982	95619	1.83E-05	q
q983	87419	1.83E-05	q
q984	99619	1.83E-05	q
q985	91019	1.83E-05	q
q986	81419	1.83E-05	q
q987	76819	1.83E-05	q
q988	76819	1.83E-05	q
q990	87319	1.83E-05	q
q991	85219	1.83E-05	q
q992	78719	1.83E-05	q
q993	77319	1.83E-05	q
q994	77019	1.83E-05	q
q995	77519	1.83E-05	q
q996	80519	1.83E-05	q
q997	81419	1.83E-05	q
q998	83219	1.83E-05	q
q999	87019	1.83E-05	q
q1000	94819	1.83E-05	q
q1001	91119	1.83E-05	q
q1002	87119	1.83E-05	q
q1003	91719	1.83E-05	q
q1004	90719	1.83E-05	q
q1005	95119	1.83E-05	q
q1006	90119	1.83E-05	q
q1007	84319	1.83E-05	q
q1008	86119	1.83E-05	q
q1009	80719	1.83E-05	q
q1010	103019	1.83E-05	q
q1011	85419	1.83E-05	q
q1012	77419	1.83E-05	q
q1013	76319	1.83E-05	q
q1014	80019	1.83E-05	q
q1015	83619	1.83E-05	q
q1016	88819	1.83E-05	q
q1017	113019	1.83E-05	q
q1018	173019	1.83E-05	q
q1019	150019	1.83E-05	q
q1020	131019	1.83E-05	q
q1021	122019	1.83E-05	q
q1022	118019	1.83E-05	q
q1023	100019	1.83E-05	q
q1024	87019	1.83E-05	q
q1025	75919	1.83E-05	q
q1026	75919	1.83E-05	q
q1027	89019	1.83E-05	q
q1028	102019	1.83E-05	q
q1029	105019	1.83E-05	q
q1030	93519	1.83E-05	q
q1031	82419	1.83E-05	q
q1032	86319	1.83E-05	q
q1033	107019	1.83E-05	q
q1034	127019	1.83E-05	q
q1035	148019	1.83E-05	q
q1036	156019	1.83E-05	q
q1037	133019	1.83E-05	q
q1038	108019	1.83E-05	q
q1039	101019	1.83E-05	q
q1040	116019	1.83E-05	q
q1041	129019	1.83E-05	q
q1042	130019	1.83E-05	q
q1043	123019	1.83E-05	q
q1044	105019	1.83E-05	q
q1045	95219	1.83E-05	q
q1046	103019	1.83E-05	q
q1047	121019	1.83E-05	q
q1048	145019	1.83E-05	q
q1049	161019	1.83E-05	q
q1050	179019	1.83E-05	q
q1051	212019	1.83E-05	q
q1052	217019	1.83E-05	q
q1053	182019	1.83E-05	q
q1054	180019	1.83E-05	q
q1055	163019	1.83E-05	q
q1056	161019	1.83E-05	q
q1057	176019	1.83E-05	q
q1058	197019	1.83E-05	q
q1059	213019	1.83E-05	q
q1062	215019	1.83E-05	q
q1063	216019	1.83E-05	q
q1064	224019	1.83E-05	q
q1065	221019	1.83E-05	q
q1066	204019	1.83E-05	q
q1067	203019	1.83E-05	q
q1068	204019	1.83E-05	q
q1069	217019	1.83E-05	q
q1071	192019	1.83E-05	q
q1072	174019	1.83E-05	q
q1073	193019	1.83E-05	q
q1074	202019	1.83E-05	q
q1075	201019	1.83E-05	q
q1076	201019	1.83E-05	q
q1077	210019	1.83E-05	q
q1078	221019	1.83E-05	q
q1080	212019	1.83E-05	q
q1081	188019	1.83E-05	q
q1082	198019	1.83E-05	q
q1083	207019	1.83E-05	q
q1084	191019	1.83E-05	q
q1085	185019	1.83E-05	q
q1086	182019	1.83E-05	q
q1087	163019	1.83E-05	q
q1088	140019	1.83E-05	q
q1089	144019	1.83E-05	q
q1090	154019	1.83E-05	q
q1091	181019	1.83E-05	q
q1092	197019	1.83E-05	q
q1093	192019	1.83E-05	q
q1094	182019	1.83E-05	q
q1095	178019	1.83E-05	q
q1096	177019	1.83E-05	q
q1097	178019	1.83E-05	q
q1098	180019	1.83E-05	q
q1099	176019	1.83E-05	q
q1100	170019	1.83E-05	q
q1101	165019	1.83E-05	q
q1102	160019	1.83E-05	q