pcf
* control data
restart  estimation
74  11296    18     0     2
2    2 single point   1   0   0
10.0  -3  0.3  0.03  10  lamforgive derforgive
10.0  10.0  0.001
0.1  noaui
0  0.001  4  4  0.005  4
1  1  1  PARSAVEITN
* singular value decomposition
1
74 5E-06
1
* parameter groups
ddsd         relative 0.025  0.0  switch  2.0 parabolic 1.0e-4 0.5 smaller
ddsw         relative 0.025  0.0  switch  2.0 parabolic 1.0e-4 0.5 smaller
ddgd         relative 0.025  0.0  switch  2.0 parabolic 1.0e-4 0.5 smaller
ddgw         relative 0.025  0.0  switch  2.0 parabolic 1.0e-4 0.5 smaller
rcsd         relative 0.025  0.0  switch  2.0 parabolic 1.0e-4 0.5 smaller
rcsw         relative 0.025  0.0  switch  2.0 parabolic 1.0e-4 0.5 smaller
rcrd         relative 0.025  0.0  switch  2.0 parabolic 1.0e-4 0.5 smaller
rcrw         relative 0.025  0.0  switch  2.0 parabolic 1.0e-4 0.5 smaller
rcgd         relative 0.025  0.0  switch  2.0 parabolic 1.0e-4 0.5 smaller
rcgw         relative 0.025  0.0  switch  2.0 parabolic 1.0e-4 0.5 smaller
tl           relative 0.025  0.0  switch  2.0 parabolic 1.0e-4 0.5 smaller
xw           relative 0.025  0.0  switch  2.0 parabolic 1.0e-4 0.5 smaller
yw           relative 0.025  0.0  switch  2.0 parabolic 1.0e-4 0.5 smaller
x            relative 0.025  0.0  switch  2.0 parabolic 1.0e-4 0.5 smaller
y            relative 0.025  0.0  switch  2.0 parabolic 1.0e-4 0.5 smaller
tlr			 relative 0.5  0.0  switch  2.0 parabolic 1.0e-4 0.5 smaller
tls			 relative 0.5  0.0  switch  2.0 parabolic 1.0e-4 0.5 smaller
beta			 relative 0.025  0.0  switch  2.0 parabolic 1.0e-4 0.5 smaller
* parameter data
ddsd        log	factor    1.100000      1.00e-08   1.1 ddsd              1.0000        0.0000      1
ddsw        log	factor    1.100000      1.00e-08   1.1 ddsw              1.0000        0.0000      1
ddgd        log	factor   6.7227045E-03  1.00e-08   1.1 ddgd              1.0000        0.0000      1
ddgw        log	factor   6.3396722E-03  1.00e-08   1.1 ddgw              1.0000        0.0000      1
rcs1d	log	factor   0.3126838      1.00e-08	1	rcsd	1	0	1
rcs1w	log	factor   0.5949675      1.00e-08	1	rcsw	1	0	1
rcs2d	log	factor    1.000000      1.00e-08	1	rcsd	1	0	1
rcs2w	log	factor    1.000000      1.00e-08	1	rcsw	1	0	1
rcs3d	log	factor   0.1498130      1.00e-08	1	rcsd	1	0	1
rcs3w	log	factor    1.000000      1.00e-08	1	rcsw	1	0	1
rcs4d	log	factor   2.3807164E-02  1.00e-08	1	rcsd	1	0	1
rcs4w	log	factor    1.000000      1.00e-08	1	rcsw	1	0	1
rcs5d	log	factor   2.5588017E-02  1.00e-08	1	rcsd	1	0	1
rcs5w	log	factor    1.000000      1.00e-08	1	rcsw	1	0	1
rcs6d	log	factor   2.1069275E-02  1.00e-08	1	rcsd	1	0	1
rcs6w	log	factor   0.8207687      1.00e-08	1	rcsw	1	0	1
rcs7d	log	factor   5.2101042E-03  1.00e-08	1	rcsd	1	0	1
rcs7w	log	factor   0.6789622      1.00e-08	1	rcsw	1	0	1
rcs8d	log	factor    1.000000      1.00e-08	1	rcsd	1	0	1
rcs8w	log	factor    1.000000      1.00e-08	1	rcsw	1	0	1
rcs9d	log	factor    1.000000      1.00e-08	1	rcsd	1	0	1
rcs9w	log	factor    1.000000      1.00e-08	1	rcsw	1	0	1
rcs10d	log	factor    1.000000      1.00e-08	1	rcsd	1	0	1
rcs10w	log	factor    1.000000      1.00e-08	1	rcsw	1	0	1
rcs11d	log	factor   7.7500122E-03  1.00e-08	1	rcsd	1	0	1
rcs11w	log	factor    1.000000      1.00e-08	1	rcsw	1	0	1
rcs12d	log	factor    1.000000      1.00e-08	1	rcsd	1	0	1
rcs12w	log	factor    1.000000      1.00e-08	1	rcsw	1	0	1
rcs13d	log	factor    1.000000      1.00e-08	1	rcsd	1	0	1
rcs13w	log	factor    1.000000      1.00e-08	1	rcsw	1	0	1
rcs14d	log	factor    1.000000      1.00e-08	1	rcsd	1	0	1
rcs14w	log	factor    1.000000      1.00e-08	1	rcsw	1	0	1
rcs15d	log	factor    1.000000      1.00e-08	1	rcsd	1	0	1
rcs15w	log	factor    1.000000      1.00e-08	1	rcsw	1	0	1
rcr1d	log	factor   7.5105079E-02  1.00e-08	1	rcrd	1	0	1
rcr1w	log	factor    1.000000      1.00e-08	1	rcrw	1	0	1
rcr2d	log	factor    1.000000      1.00e-08	1	rcrd	1	0	1
rcr2w	log	factor    1.000000      1.00e-08	1	rcrw	1	0	1
rcr3d	log	factor    1.000000      1.00e-08	1	rcrd	1	0	1
rcr3w	log	factor    1.000000      1.00e-08	1	rcrw	1	0	1
rcr4d	log	factor   0.9813467      1.00e-08	1	rcrd	1	0	1
rcr4w	log	factor    1.000000      1.00e-08	1	rcrw	1	0	1
rcr5d	log	factor   1.5039413E-02  1.00e-08	1	rcrd	1	0	1
rcr5w	log	factor    1.000000      1.00e-08	1	rcrw	1	0	1
rcr6d	log	factor   2.7912406E-02  1.00e-08	1	rcrd	1	0	1
rcr6w	log	factor   0.1247449      1.00e-08	1	rcrw	1	0	1
rcr7d	log	factor   1.4651835E-02  1.00e-08	1	rcrd	1	0	1
rcr7w	log	factor   9.9148692E-02  1.00e-08	1	rcrw	1	0	1
rcr8d	log	factor   6.9384381E-03  1.00e-08	1	rcrd	1	0	1
rcr8w	log	factor   3.7973985E-02  1.00e-08	1	rcrw	1	0	1
rcr9d	log	factor   0.2518207      1.00e-08	1	rcrd	1	0	1
rcr9w	log	factor   2.7093290E-02  1.00e-08	1	rcrw	1	0	1
rcr10d	log	factor   1.0547310E-02  1.00e-08	1	rcrd	1	0	1
rcr10w	log	factor   2.4592105E-02  1.00e-08	1	rcrw	1	0	1
rcr11d	log	factor   6.5306753E-03  1.00e-08	1	rcrd	1	0	1
rcr11w	log	factor   1.2740954E-02  1.00e-08	1	rcrw	1	0	1
rcr12d	log	factor   4.0428201E-03  1.00e-08	1	rcrd	1	0	1
rcr12w	log	factor   1.0283263E-02  1.00e-08	1	rcrw	1	0	1
rcr13d	log	factor   6.7463016E-03  1.00e-08	1	rcrd	1	0	1
rcr13w	log	factor   0.8587654      1.00e-08	1	rcrw	1	0	1
rcr14d	log	factor   1.1275521E-02  1.00e-08	1	rcrd	1	0	1
rcr14w	log	factor   0.9804197      1.00e-08	1	rcrw	1	0	1
rcr15d	log	factor   2.2188021E-02  1.00e-08	1	rcrd	1	0	1
rcr15w	log	factor   8.3272444E-02  1.00e-08	1	rcrw	1	0	1
rcgd	log	factor   2.1923123E-02  1.00e-08	1	rcgd	1	0	1
rcgw	log	factor   0.3569354      1.00e-08	1	rcgw	1	0	1
tl          log	factor   6.6757772E-03  1.00e-08    5 tl              1.0000        0.0000      1
xw          log	factor    1.097229      1.00e-08   2.1 xw               1.0000        0.0000      1
yw          log	factor   9.0362553E-03  1.00e-08    1 yw               1.0000        0.0000      1
x           log	factor   0.9631176      1.00e-08   2.3 x               1.0000        0.0000      1
y           log	factor   6.1447742E-03  1.00e-08    1 y               1.0000        0.0000      1
tlr			log	factor   3.2400000E-02  1.00e-08    10 tlr               1.0000        0.0000      1
tls			log	factor   3.0800000E-02  1.00e-08    30 tls               1.0000        0.0000      1
beta	log	factor   0.5100000      2.00e-01	5.1e-01	beta	1	0	1
* observation groups
q
swe
* observation data
 q3                    61603.00       0.553224      q
 q4                    58703.00       0.553224      q
 q5                    56903.00       0.553224      q
 q6                    56103.00       0.553224      q
 q7                    53403.00       0.553224      q
 q8                    49903.00       0.553224      q
 q9                    47303.00       0.553224      q
 q10                   46203.00       0.553224      q
 q11                   46203.00       0.553224      q
 q12                   47803.00       0.553224      q
 q13                   47003.00       0.553224      q
 q14                   46103.00       0.553224      q
 q15                   45803.00       0.553224      q
 q16                   42103.00       0.553224      q
 q17                   42803.00       0.553224      q
 q18                   43203.00       0.553224      q
 q19                   42803.00       0.553224      q
 q20                   41903.00       0.553224      q
 q21                   40903.00       0.553224      q
 q22                   40203.00       0.553224      q
 q23                   41003.00       0.553224      q
 q24                   43203.00       0.553224      q
 q25                   42903.00       0.553224      q
 q26                   43503.00       0.553224      q
 q27                   46303.00       0.553224      q
 q28                   46103.00       0.553224      q
 q29                   45103.00       0.553224      q
 q30                   44703.00       0.553224      q
 q31                   44503.00       0.553224      q
 q32                   42803.00       0.553224      q
 q33                   41503.00       0.553224      q
 q34                   40603.00       0.553224      q
 q35                   41603.00       0.553224      q
 q36                   40703.00       0.553224      q
 q37                   40603.00       0.553224      q
 q38                   41503.00       0.553224      q
 q39                   40603.00       0.553224      q
 q40                   38303.00       0.553224      q
 q41                   38403.00       0.553224      q
 q42                   38803.00       0.553224      q
 q43                   183003.0       0.553224      q
 q44                   73903.00       0.553224      q
 q45                   61503.00       0.553224      q
 q46                   51403.00       0.553224      q
 q47                   39703.00       0.553224      q
 q48                   38103.00       0.553224      q
 q49                   36803.00       0.553224      q
 q50                   34603.00       0.553224      q
 q51                   34903.00       0.553224      q
 q52                   34003.00       0.553224      q
 q53                   38103.00       0.553224      q
 q54                   40503.00       0.553224      q
 q55                   41703.00       0.553224      q
 q56                   40603.00       0.553224      q
 q57                   37303.00       0.553224      q
 q58                   43403.00       0.553224      q
 q59                   37503.00       0.553224      q
 q60                   34803.00       0.553224      q
 q61                   32803.00       0.553224      q
 q62                   33103.00       0.553224      q
 q63                   37903.00       0.553224      q
 q64                   36803.00       0.553224      q
 q65                   35803.00       0.553224      q
 q66                   35803.00       0.553224      q
 q67                   36303.00       0.553224      q
 q68                   36303.00       0.553224      q
 q69                   37203.00       0.553224      q
 q70                   36303.00       0.553224      q
 q71                   36603.00       0.553224      q
 q72                   36203.00       0.553224      q
 q73                   35203.00       0.553224      q
 q74                   33203.00       0.553224      q
 q75                   35403.00       0.553224      q
 q76                   34303.00       0.553224      q
 q77                   32403.00       0.553224      q
 q78                   28903.00       0.553224      q
 q79                   26903.00       0.553224      q
 q80                   25203.00       0.553224      q
 q81                   22403.00       0.553224      q
 q82                   20803.00       0.553224      q
 q83                   19703.00       0.553224      q
 q84                   18103.00       0.553224      q
 q85                   17203.00       0.553224      q
 q86                   16003.00       0.553224      q
 q87                   13803.00       0.553224      q
 q88                   12503.00       0.553224      q
 q89                   11803.00       0.553224      q
 q90                   10403.00       0.553224      q
 q91                   9973.000       0.553224      q
 q92                   12603.00       0.553224      q
 q93                   12803.00       0.553224      q
 q94                   13203.00       0.553224      q
 q95                   12703.00       0.553224      q
 q96                   12503.00       0.553224      q
 q97                   11603.00       0.553224      q
 q98                   11603.00       0.553224      q
 q99                   11103.00       0.553224      q
 q104                  15103.00       0.553224      q
 q105                  26103.00       0.553224      q
 q106                  26003.00       0.553224      q
 q107                  18903.00       0.553224      q
 q108                  17103.00       0.553224      q
 q109                  16103.00       0.553224      q
 q110                  15303.00       0.553224      q
 q111                  14703.00       0.553224      q
 q112                  14003.00       0.553224      q
 q113                  13703.00       0.553224      q
 q114                  13403.00       0.553224      q
 q115                  13303.00       0.553224      q
 q116                  13403.00       0.553224      q
 q117                  13503.00       0.553224      q
 q118                  13203.00       0.553224      q
 q119                  12703.00       0.553224      q
 q120                  12403.00       0.553224      q
 q121                  12303.00       0.553224      q
 q122                  14503.00       0.553224      q
 q123                  14403.00       0.553224      q
 q124                  13903.00       0.553224      q
 q125                  12703.00       0.553224      q
 q126                  12403.00       0.553224      q
 q127                  12203.00       0.553224      q
 q128                  12003.00       0.553224      q
 q129                  11703.00       0.553224      q
 q130                  11603.00       0.553224      q
 q131                  11703.00       0.553224      q
 q132                  11703.00       0.553224      q
 q133                  11503.00       0.553224      q
 q134                  11603.00       0.553224      q
 q135                  11603.00       0.553224      q
 q136                  13803.00       0.553224      q
 q137                  13003.00       0.553224      q
 q138                  12103.00       0.553224      q
 q139                  11703.00       0.553224      q
 q140                  11503.00       0.553224      q
 q141                  11303.00       0.553224      q
 q142                  11103.00       0.553224      q
 q143                  10903.00       0.553224      q
 q144                  10703.00       0.553224      q
 q145                  11903.00       0.553224      q
 q146                  12803.00       0.553224      q
 q147                  12103.00       0.553224      q
 q148                  11703.00       0.553224      q
 q149                  11503.00       0.553224      q
 q150                  13103.00       0.553224      q
 q151                  12603.00       0.553224      q
 q152                  11603.00       0.553224      q
 q153                  11303.00       0.553224      q
 q154                  11303.00       0.553224      q
 q155                  11103.00       0.553224      q
 q156                  11203.00       0.553224      q
 q157                  15903.00       0.553224      q
 q158                  14303.00       0.553224      q
 q159                  13003.00       0.553224      q
 q160                  12003.00       0.553224      q
 q161                  12203.00       0.553224      q
 q162                  15803.00       0.553224      q
 q163                  14403.00       0.553224      q
 q164                  84303.00       0.553224      q
 q165                  306003.0       0.553224      q
 q166                  210003.0       0.553224      q
 q167                  99803.00       0.553224      q
 q168                  63203.00       0.553224      q
 q169                  47303.00       0.553224      q
 q170                  28003.00       0.553224      q
 q171                  21503.00       0.553224      q
 q172                  21503.00       0.553224      q
 q173                  191003.0       0.553224      q
 q175                  240003.0       0.553224      q
 q176                  200003.0       0.553224      q
 q177                  145003.0       0.553224      q
 q178                  106003.0       0.553224      q
 q179                  132003.0       0.553224      q
 q180                  121003.0       0.553224      q
 q181                  120003.0       0.553224      q
 q183                  462003.0       0.553224      q
 q184                  237003.0       0.553224      q
 q185                  157003.0       0.553224      q
 q186                  128003.0       0.553224      q
 q187                  109003.0       0.553224      q
 q188                  102003.0       0.553224      q
 q189                  149003.0       0.553224      q
 q190                  114003.0       0.553224      q
 q191                  96603.00       0.553224      q
 q192                  83003.00       0.553224      q
 q193                  73703.00       0.553224      q
 q194                  66703.00       0.553224      q
 q195                  62603.00       0.553224      q
 q196                  58703.00       0.553224      q
 q197                  55003.00       0.553224      q
 q198                  53303.00       0.553224      q
 q199                  53003.00       0.553224      q
 q200                  50803.00       0.553224      q
 q201                  48703.00       0.553224      q
 q202                  67203.00       0.553224      q
 q203                  70503.00       0.553224      q
 q204                  57903.00       0.553224      q
 q205                  53203.00       0.553224      q
 q206                  52603.00       0.553224      q
 q207                  51303.00       0.553224      q
 q208                  52003.00       0.553224      q
 q209                  51803.00       0.553224      q
 q210                  49703.00       0.553224      q
 q211                  48903.00       0.553224      q
 q212                  48803.00       0.553224      q
 q213                  47803.00       0.553224      q
 q214                  46003.00       0.553224      q
 q215                  46303.00       0.553224      q
 q216                  45003.00       0.553224      q
 q217                  44903.00       0.553224      q
 q218                  43003.00       0.553224      q
 q220                  42903.00       0.553224      q
 q221                  44603.00       0.553224      q
 q222                  42803.00       0.553224      q
 q223                  42203.00       0.553224      q
 q224                  41103.00       0.553224      q
 q225                  41003.00       0.553224      q
 q227                  38803.00       0.553224      q
 q228                  36803.00       0.553224      q
 q229                  35103.00       0.553224      q
 q230                  34503.00       0.553224      q
 q231                  36303.00       0.553224      q
 q232                  38303.00       0.553224      q
 q233                  37603.00       0.553224      q
 q234                  40103.00       0.553224      q
 q235                  40003.00       0.553224      q
 q236                  42203.00       0.553224      q
 q237                  39303.00       0.553224      q
 q238                  37403.00       0.553224      q
 q239                  35603.00       0.553224      q
 q240                  34303.00       0.553224      q
 q241                  32903.00       0.553224      q
 q242                  31103.00       0.553224      q
 q243                  33603.00       0.553224      q
 q244                  31303.00       0.553224      q
 q245                  30403.00       0.553224      q
 q246                  31003.00       0.553224      q
 q247                  31803.00       0.553224      q
 q248                  33703.00       0.553224      q
 q249                  35303.00       0.553224      q
 q250                  36403.00       0.553224      q
 q251                  35203.00       0.553224      q
 q252                  49503.00       0.553224      q
 q253                  118003.0       0.553224      q
 q254                  102003.0       0.553224      q
 q255                  81803.00       0.553224      q
 q256                  70603.00       0.553224      q
 q257                  72803.00       0.553224      q
 q258                  71603.00       0.553224      q
 q259                  68703.00       0.553224      q
 q260                  73003.00       0.553224      q
 q261                  94303.00       0.553224      q
 q262                  107003.0       0.553224      q
 q263                  102003.0       0.553224      q
 q264                  122003.0       0.553224      q
 q265                  102003.0       0.553224      q
 q266                  90903.00       0.553224      q
 q267                  84803.00       0.553224      q
 q268                  80903.00       0.553224      q
 q269                  78903.00       0.553224      q
 q270                  83303.00       0.553224      q
 q271                  90703.00       0.553224      q
 q272                  98703.00       0.553224      q
 q273                  98703.00       0.553224      q
 q276                  94803.00       0.553224      q
 q277                  83103.00       0.553224      q
 q278                  81803.00       0.553224      q
 q279                  79603.00       0.553224      q
 q280                  80303.00       0.553224      q
 q281                  83503.00       0.553224      q
 q282                  85503.00       0.553224      q
 q283                  75903.00       0.553224      q
 q284                  73503.00       0.553224      q
 q285                  73603.00       0.553224      q
 q286                  70703.00       0.553224      q
 q287                  67903.00       0.553224      q
 q288                  73303.00       0.553224      q
 q289                  78503.00       0.553224      q
 q290                  78903.00       0.553224      q
 q291                  85603.00       0.553224      q
 q292                  93703.00       0.553224      q
 q293                  99503.00       0.553224      q
 q294                  101003.0       0.553224      q
 q295                  110003.0       0.553224      q
 q296                  102003.0       0.553224      q
 q297                  99903.00       0.553224      q
 q298                  102003.0       0.553224      q
 q299                  91803.00       0.553224      q
 q300                  83003.00       0.553224      q
 q301                  86103.00       0.553224      q
 q302                  95803.00       0.553224      q
 q303                  107003.0       0.553224      q
 q304                  116003.0       0.553224      q
 q305                  108003.0       0.553224      q
 q306                  99503.00       0.553224      q
 q307                  102003.0       0.553224      q
 q308                  99703.00       0.553224      q
 q311                  83303.00       0.553224      q
 q312                  89103.00       0.553224      q
 q313                  83303.00       0.553224      q
 q314                  74103.00       0.553224      q
 q315                  69103.00       0.553224      q
 q316                  68603.00       0.553224      q
 q317                  65303.00       0.553224      q
 q318                  64203.00       0.553224      q
 q319                  63103.00       0.553224      q
 q320                  67903.00       0.553224      q
 q321                  77203.00       0.553224      q
 q322                  93903.00       0.553224      q
 q323                  118003.0       0.553224      q
 q324                  132003.0       0.553224      q
 q325                  134003.0       0.553224      q
 q326                  144003.0       0.553224      q
 q327                  154003.0       0.553224      q
 q328                  158003.0       0.553224      q
 q329                  168003.0       0.553224      q
 q330                  193003.0       0.553224      q
 q331                  231003.0       0.553224      q
 q332                  277003.0       0.553224      q
 q333                  318003.0       0.553224      q
 q334                  324003.0       0.553224      q
 q335                  241003.0       0.553224      q
 q336                  241003.0       0.553224      q
 q337                  195003.0       0.553224      q
 q338                  177003.0       0.553224      q
 q339                  167003.0       0.553224      q
 q340                  170003.0       0.553224      q
 q341                  188003.0       0.553224      q
 q342                  202003.0       0.553224      q
 q343                  197003.0       0.553224      q
 q344                  193003.0       0.553224      q
 q345                  189003.0       0.553224      q
 q346                  185003.0       0.553224      q
 q347                  181003.0       0.553224      q
 q348                  178003.0       0.553224      q
 q349                  172003.0       0.553224      q
 q350                  157003.0       0.553224      q
 q351                  152003.0       0.553224      q
 q352                  153003.0       0.553224      q
 q353                  178003.0       0.553224      q
 q354                  202003.0       0.553224      q
 q355                  199003.0       0.553224      q
 q356                  178003.0       0.553224      q
 q357                  162003.0       0.553224      q
 q358                  149003.0       0.553224      q
 q359                  150003.0       0.553224      q
 q360                  134003.0       0.553224      q
 q361                  120003.0       0.553224      q
 q362                  117003.0       0.553224      q
 q363                  117003.0       0.553224      q
 q364                  118003.0       0.553224      q
 q365                  122003.0       0.553224      q
 q366                  124003.0       0.553224      q
 q367                  119003.0       0.553224      q
 q368                  126003.0       0.553224      q
 q369                  125003.0       0.553224      q
 q370                  122003.0       0.553224      q
 q371                  123003.0       0.553224      q
 q372                  122003.0       0.553224      q
 q373                  118003.0       0.553224      q
 q374                  125003.0       0.553224      q
 q375                  114003.0       0.553224      q
 q376                  97803.00       0.553224      q
 q377                  87003.00       0.553224      q
 q378                  90303.00       0.553224      q
 q379                  95203.00       0.553224      q
 q380                  96103.00       0.553224      q
 q381                  100003.0       0.553224      q
 q382                  102003.0       0.553224      q
 q383                  97003.00       0.553224      q
 q384                  91503.00       0.553224      q
 q385                  85503.00       0.553224      q
 q386                  85603.00       0.553224      q
 q387                  85403.00       0.553224      q
 q388                  80303.00       0.553224      q
 q389                  77803.00       0.553224      q
 q390                  78903.00       0.553224      q
 q391                  78503.00       0.553224      q
 q392                  76303.00       0.553224      q
 q393                  75603.00       0.553224      q
 q394                  69703.00       0.553224      q
 q395                  68303.00       0.553224      q
 q396                  66303.00       0.553224      q
 q397                  58903.00       0.553224      q
 q398                  60203.00       0.553224      q
 q399                  61403.00       0.553224      q
 q400                  62303.00       0.553224      q
 q401                  62703.00       0.553224      q
 q402                  63903.00       0.553224      q
 q403                  61803.00       0.553224      q
 q404                  57503.00       0.553224      q
 q405                  55603.00       0.553224      q
 q406                  55303.00       0.553224      q
 q407                  55103.00       0.553224      q
 q408                  54003.00       0.553224      q
 q409                  52303.00       0.553224      q
 q410                  55603.00       0.553224      q
 q411                  55803.00       0.553224      q
 q412                  56703.00       0.553224      q
 q413                  58403.00       0.553224      q
 q414                  59103.00       0.553224      q
 q415                  59103.00       0.553224      q
 q416                  58703.00       0.553224      q
 q417                  57103.00       0.553224      q
 q418                  53003.00       0.553224      q
 q419                  49603.00       0.553224      q
 q420                  47603.00       0.553224      q
 q421                  45903.00       0.553224      q
 q422                  44503.00       0.553224      q
 q423                  42803.00       0.553224      q
 q424                  41803.00       0.553224      q
 q425                  41203.00       0.553224      q
 q426                  41803.00       0.553224      q
 q427                  40903.00       0.553224      q
 q428                  40003.00       0.553224      q
 q429                  40303.00       0.553224      q
 q430                  40903.00       0.553224      q
 q431                  39103.00       0.553224      q
 q432                  38303.00       0.553224      q
 q433                  38103.00       0.553224      q
 q434                  37403.00       0.553224      q
 q435                  36203.00       0.553224      q
 q436                  35403.00       0.553224      q
 q437                  35103.00       0.553224      q
 q438                  34603.00       0.553224      q
 q439                  33803.00       0.553224      q
 q440                  33503.00       0.553224      q
 q441                  33203.00       0.553224      q
 q442                  32103.00       0.553224      q
 q443                  31703.00       0.553224      q
 q444                  30603.00       0.553224      q
 q445                  30003.00       0.553224      q
 q446                  30303.00       0.553224      q
 q447                  32303.00       0.553224      q
 q448                  28503.00       0.553224      q
 q449                  26003.00       0.553224      q
 q450                  25303.00       0.553224      q
 q451                  24503.00       0.553224      q
 q452                  24003.00       0.553224      q