pcf
* control data
restart  estimation
62  7070    18     0     1
2   2 single point   1   0   0
10.0  -3  0.3  0.03  10  lamforgive derforgive
10.0  10.0  0.001
0.1  noaui
-2 0.001  4  4  0.005  4
0 0 0  PARSAVEITN
* singular value decomposition
1
62 5E-07
0
* parameter groups
ddsd         relative 0.025  0.0  switch  2.0 parabolic 1.0e-4 0.5 smaller
ddsw         relative 0.025  0.0  switch  2.0 parabolic 1.0e-4 0.5 smaller
ddgd         relative 0.025  0.0  switch  2.0 parabolic 1.0e-4 0.5 smaller
ddgw         relative 0.025  0.0  switch  2.0 parabolic 1.0e-4 0.5 smaller
rcsd         relative 0.025  0.0  switch  2.0 parabolic 1.0e-4 0.5 smaller
rcsw         relative 0.025  0.0  switch  2.0 parabolic 1.0e-4 0.5 smaller
rcrd         relative 0.025  0.0  switch  2.0 parabolic 1.0e-4 0.5 smaller
rcrw         relative 0.025  0.0  switch  2.0 parabolic 1.0e-4 0.5 smaller
rcgd         relative 0.025  0.0  switch  2.0 parabolic 1.0e-4 0.5 smaller
rcgw         relative 0.025  0.0  switch  2.0 parabolic 1.0e-4 0.5 smaller
tl           relative 0.025  0.0  switch  2.0 parabolic 1.0e-4 0.5 smaller
xw           relative 0.025  0.0  switch  2.0 parabolic 1.0e-4 0.5 smaller
yw           relative 0.025  0.0  switch  2.0 parabolic 1.0e-4 0.5 smaller
x            relative 0.025  0.0  switch  2.0 parabolic 1.0e-4 0.5 smaller
y            relative 0.025  0.0  switch  2.0 parabolic 1.0e-4 0.5 smaller
tlr			 relative 0.5  0.0  switch  2.0 parabolic 1.0e-4 0.5 smaller
tls			 relative 0.5  0.0  switch  2.0 parabolic 1.0e-4 0.5 smaller
beta			 relative 0.025  0.0  switch  2.0 parabolic 1.0e-4 0.5 smaller
* parameter data
ddsd	log	factor   0.3836400      1.00e-01	2.1	ddsd	1	0	1
ddsw	log	factor   0.4870400      1.00e-01	2.1	ddsw	1	0	1
ddgd	log	factor   0.8733922      1.00e-08	1.1	ddgd	1	0	1
ddgw	log	factor   7.4747865E-02  1.00e-08	1.1	ddgw	1	0	1
rcs1d	log	factor   0.3085907      1.00e-08	1	rcsd	1	0	1
rcs1w	log	factor   0.5728968      1.00e-08	1	rcsw	1	0	1
rcs2d	log	factor    1.000000      1.00e-08	1	rcsd	1	0	1
rcs2w	log	factor   0.9967308      1.00e-08	1	rcsw	1	0	1
rcs3d	log	factor   0.1253535      1.00e-08	1	rcsd	1	0	1
rcs3w	log	factor    1.000000      1.00e-08	1	rcsw	1	0	1
rcs4d	log	factor   2.4036067E-02  1.00e-08	1	rcsd	1	0	1
rcs4w	log	factor    1.000000      1.00e-08	1	rcsw	1	0	1
rcs5d	log	factor   2.2216917E-02  1.00e-08	1	rcsd	1	0	1
rcs5w	log	factor   3.8359977E-02  1.00e-08	1	rcsw	1	0	1
rcs6d	log	factor   1.2808397E-02  1.00e-08	1	rcsd	1	0	1
rcs6w	log	factor   7.8953426E-03  1.00e-08	1	rcsw	1	0	1
rcs7d	log	factor   4.6585627E-03  1.00e-08	1	rcsd	1	0	1
rcs7w	log	factor   3.7717180E-03  1.00e-08	1	rcsw	1	0	1
rcs8d	log	factor    1.000000      1.00e-08	1	rcsd	1	0	1
rcs8w	log	factor    1.000000      1.00e-08	1	rcsw	1	0	1
rcs9d	log	factor    1.000000      1.00e-08	1	rcsd	1	0	1
rcs9w	log	factor    1.000000      1.00e-08	1	rcsw	1	0	1
rcs10d	log	factor    1.000000      1.00e-08	1	rcsd	1	0	1
rcs10w	log	factor    1.000000      1.00e-08	1	rcsw	1	0	1
rcs11d	log	factor   8.0910412E-03  1.00e-08	1	rcsd	1	0	1
rcs11w	log	factor   2.3179748E-02  1.00e-08	1	rcsw	1	0	1
rcs12d	log	factor    1.000000      1.00e-08	1	rcsd	1	0	1
rcs12w	log	factor   7.6378009E-02  1.00e-08	1	rcsw	1	0	1
rcr1d	log	factor   6.4372260E-02  1.00e-08	1	rcrd	1	0	1
rcr1w	log	factor   0.1554472      1.00e-08	1	rcrw	1	0	1
rcr2d	log	factor    1.000000      1.00e-08	1	rcrd	1	0	1
rcr2w	log	factor   0.7220054      1.00e-08	1	rcrw	1	0	1
rcr3d	log	factor   0.6392390      1.00e-08	1	rcrd	1	0	1
rcr3w	log	factor   0.2267381      1.00e-08	1	rcrw	1	0	1
rcr4d	log	factor   2.1447793E-02  1.00e-08	1	rcrd	1	0	1
rcr4w	log	factor   2.6213108E-02  1.00e-08	1	rcrw	1	0	1
rcr5d	log	factor   1.1531148E-02  1.00e-08	1	rcrd	1	0	1
rcr5w	log	factor   6.9857510E-03  1.00e-08	1	rcrw	1	0	1
rcr6d	log	factor   4.9780960E-03  1.00e-08	1	rcrd	1	0	1
rcr6w	log	factor   2.7831211E-02  1.00e-08	1	rcrw	1	0	1
rcr7d	log	factor   5.9242119E-03  1.00e-08	1	rcrd	1	0	1
rcr7w	log	factor   0.2358392      1.00e-08	1	rcrw	1	0	1
rcr8d	log	factor   6.6707919E-03  1.00e-08	1	rcrd	1	0	1
rcr8w	log	factor    1.000000      1.00e-08	1	rcrw	1	0	1
rcr9d	log	factor    1.000000      1.00e-08	1	rcrd	1	0	1
rcr9w	log	factor    1.000000      1.00e-08	1	rcrw	1	0	1
rcr10d	log	factor   1.9497863E-02  1.00e-08	1	rcrd	1	0	1
rcr10w	log	factor    1.000000      1.00e-08	1	rcrw	1	0	1
rcr11d	log	factor   7.4348629E-03  1.00e-08	1	rcrd	1	0	1
rcr11w	log	factor   2.5119028E-02  1.00e-08	1	rcrw	1	0	1
rcr12d	log	factor   4.0726346E-03  1.00e-08	1	rcrd	1	0	1
rcr12w	log	factor   1.0445547E-02  1.00e-08	1	rcrw	1	0	1
rcgd	log	factor   2.1930811E-02  1.00e-08	1	rcgd	1	0	1
rcgw	log	factor   0.3551119      1.00e-08	1	rcgw	1	0	1
tl	log	factor    1.694654      1.00e-08	5	tl	1	0	1
xw	log	factor   0.9523951      1.00e-08	2.1	xw	1	0	1
yw	log	factor   2.5432844E-04  1.00e-08	1	yw	1	0	1
x	log	factor    1.156447      1.00e-08	2.3	x	1	0	1
y	log	factor   2.8469426E-02  1.00e-08	1	y	1	0	1
tlr	log	factor   6.8200000E-02  1.00e-08	10	tlr	1	0	1
tls	log	factor   0.2220000      1.00e-08	30	tls	1	0	1
beta	log	factor   0.5100000      2.00e-01	5.1e-01	beta	1	0	1
* observation groups
q
* observation data
q1	32800	2.38E-05	q	1.19053E-05
q2	32600	2.38E-05	q	1.19053E-05
q3	31900	2.38E-05	q	1.19053E-05
q4	31200	2.38E-05	q	1.19053E-05
q5	30600	2.38E-05	q	1.19053E-05
q6	30300	2.38E-05	q	1.19053E-05
q7	29000	2.38E-05	q	1.19053E-05
q8	27700	2.38E-05	q	1.19053E-05
q9	27200	2.38E-05	q	1.19053E-05
q10	26800	2.38E-05	q	1.19053E-05
q11	26400	2.38E-05	q	1.19053E-05
q12	26300	2.38E-05	q	1.19053E-05
q13	25600	2.38E-05	q	1.19053E-05
q14	25000	2.38E-05	q	1.19053E-05
q15	24900	2.38E-05	q	1.19053E-05
q16	23900	2.38E-05	q	1.19053E-05
q17	23500	2.38E-05	q	1.19053E-05
q18	23000	2.38E-05	q	1.19053E-05
q19	23200	2.38E-05	q	1.19053E-05
q20	22900	2.38E-05	q	1.19053E-05
q21	22500	2.38E-05	q	1.19053E-05
q22	22000	2.38E-05	q	1.19053E-05
q23	21200	2.38E-05	q	1.19053E-05
q24	21000	2.38E-05	q	1.19053E-05
q25	20900	2.38E-05	q	1.19053E-05
q26	20800	2.38E-05	q	1.19053E-05
q27	21000	2.38E-05	q	1.19053E-05
q28	20400	2.38E-05	q	1.19053E-05
q29	20600	2.38E-05	q	1.19053E-05
q30	20400	2.38E-05	q	1.19053E-05
q31	20200	2.38E-05	q	1.19053E-05
q32	19800	2.38E-05	q	1.19053E-05
q33	19900	2.38E-05	q	1.19053E-05
q34	19500	2.38E-05	q	1.19053E-05
q35	19600	2.38E-05	q	1.19053E-05
q36	19300	2.38E-05	q	1.19053E-05
q37	19100	2.38E-05	q	1.19053E-05
q38	18800	2.38E-05	q	1.19053E-05
q39	18800	2.38E-05	q	1.19053E-05
q40	18100	2.38E-05	q	1.19053E-05
q41	18200	2.38E-05	q	1.19053E-05
q42	19300	2.38E-05	q	1.19053E-05
q43	72400	2.38E-05	q	1.19053E-05
q44	24000	2.38E-05	q	1.19053E-05
q45	19500	2.38E-05	q	1.19053E-05
q46	18400	2.38E-05	q	1.19053E-05
q47	18200	2.38E-05	q	1.19053E-05
q48	18100	2.38E-05	q	1.19053E-05
q49	17700	2.38E-05	q	1.19053E-05
q50	17200	2.38E-05	q	1.19053E-05
q51	17200	2.38E-05	q	1.19053E-05
q52	16900	2.38E-05	q	1.19053E-05
q53	16700	2.38E-05	q	1.19053E-05
q54	16700	2.38E-05	q	1.19053E-05
q55	16700	2.38E-05	q	1.19053E-05
q56	16500	2.38E-05	q	1.19053E-05
q57	16700	2.38E-05	q	1.19053E-05
q58	20400	2.38E-05	q	1.19053E-05
q59	17800	2.38E-05	q	1.19053E-05
q60	17100	2.38E-05	q	1.19053E-05
q61	17000	2.38E-05	q	1.19053E-05
q62	16700	2.38E-05	q	1.19053E-05
q63	16400	2.38E-05	q	1.19053E-05
q64	16200	2.38E-05	q	1.19053E-05
q65	16200	2.38E-05	q	1.19053E-05
q66	16200	2.38E-05	q	1.19053E-05
q67	16200	2.38E-05	q	1.19053E-05
q68	16200	2.38E-05	q	1.19053E-05
q69	16000	2.38E-05	q	1.19053E-05
q70	16100	2.38E-05	q	1.19053E-05
q71	16100	2.38E-05	q	1.19053E-05
q72	16200	2.38E-05	q	1.19053E-05
q73	15900	2.38E-05	q	1.19053E-05
q74	15900	2.38E-05	q	1.19053E-05
q75	15600	2.38E-05	q	1.19053E-05
q76	15300	2.38E-05	q	1.19053E-05
q77	15000	2.38E-05	q	1.19053E-05
q78	14600	2.38E-05	q	1.19053E-05
q79	14700	2.38E-05	q	1.19053E-05
q80	14500	2.38E-05	q	1.19053E-05
q81	14400	2.38E-05	q	1.19053E-05
q82	14100	2.38E-05	q	1.19053E-05
q83	14100	2.38E-05	q	1.19053E-05
q84	14000	2.38E-05	q	1.19053E-05
q85	13800	2.38E-05	q	1.19053E-05
q86	13900	2.38E-05	q	1.19053E-05
q87	13900	2.38E-05	q	1.19053E-05
q88	13700	2.38E-05	q	1.19053E-05
q89	13500	2.38E-05	q	1.19053E-05
q90	13600	2.38E-05	q	1.19053E-05
q91	13800	2.38E-05	q	1.19053E-05
q92	13600	2.38E-05	q	1.19053E-05
q93	13600	2.38E-05	q	1.19053E-05
q94	13600	2.38E-05	q	1.19053E-05
q95	13400	2.38E-05	q	1.19053E-05
q96	13400	2.38E-05	q	1.19053E-05
q97	13400	2.38E-05	q	1.19053E-05
q98	13300	2.38E-05	q	1.19053E-05
q99	13300	2.38E-05	q	1.19053E-05
q100	13300	2.38E-05	q	1.19053E-05
q101	13200	2.38E-05	q	1.19053E-05
q102	13200	2.38E-05	q	1.19053E-05
q103	13200	2.38E-05	q	1.19053E-05
q104	13500	2.38E-05	q	1.19053E-05
q105	16600	2.38E-05	q	1.19053E-05
q106	16900	2.38E-05	q	1.19053E-05
q107	14900	2.38E-05	q	1.19053E-05
q108	14200	2.38E-05	q	1.19053E-05
q109	13700	2.38E-05	q	1.19053E-05
q110	13600	2.38E-05	q	1.19053E-05
q111	13700	2.38E-05	q	1.19053E-05
q112	13700	2.38E-05	q	1.19053E-05
q113	13500	2.38E-05	q	1.19053E-05
q114	13600	2.38E-05	q	1.19053E-05
q115	13200	2.38E-05	q	1.19053E-05
q116	12900	2.38E-05	q	1.19053E-05
q117	12800	2.38E-05	q	1.19053E-05
q118	12700	2.38E-05	q	1.19053E-05
q119	12700	2.38E-05	q	1.19053E-05
q120	12500	2.38E-05	q	1.19053E-05
q121	12800	2.38E-05	q	1.19053E-05
q122	13900	2.38E-05	q	1.19053E-05
q123	13900	2.38E-05	q	1.19053E-05
q124	13200	2.38E-05	q	1.19053E-05
q125	12900	2.38E-05	q	1.19053E-05
q126	12900	2.38E-05	q	1.19053E-05
q127	12700	2.38E-05	q	1.19053E-05
q128	12600	2.38E-05	q	1.19053E-05
q129	12700	2.38E-05	q	1.19053E-05
q130	12500	2.38E-05	q	1.19053E-05
q131	12400	2.38E-05	q	1.19053E-05
q132	12400	2.38E-05	q	1.19053E-05
q133	12400	2.38E-05	q	1.19053E-05
q134	12400	2.38E-05	q	1.19053E-05
q135	12500	2.38E-05	q	1.19053E-05
q136	12900	2.38E-05	q	1.19053E-05
q137	12800	2.38E-05	q	1.19053E-05
q138	12500	2.38E-05	q	1.19053E-05
q139	12500	2.38E-05	q	1.19053E-05
q140	12300	2.38E-05	q	1.19053E-05
q141	12200	2.38E-05	q	1.19053E-05
q142	12200	2.38E-05	q	1.19053E-05
q143	12100	2.38E-05	q	1.19053E-05
q144	11800	2.38E-05	q	1.19053E-05
q145	12500	2.38E-05	q	1.19053E-05
q146	12600	2.38E-05	q	1.19053E-05
q147	12300	2.38E-05	q	1.19053E-05
q148	11900	2.38E-05	q	1.19053E-05
q149	11900	2.38E-05	q	1.19053E-05
q150	13500	2.38E-05	q	1.19053E-05
q151	12700	2.38E-05	q	1.19053E-05
q152	12300	2.38E-05	q	1.19053E-05
q153	12000	2.38E-05	q	1.19053E-05
q154	11800	2.38E-05	q	1.19053E-05
q155	12700	2.38E-05	q	1.19053E-05
q156	14200	2.38E-05	q	1.19053E-05
q157	18100	2.38E-05	q	1.19053E-05
q158	14700	2.38E-05	q	1.19053E-05
q159	14000	2.38E-05	q	1.19053E-05
q160	13600	2.38E-05	q	1.19053E-05
q161	14000	2.38E-05	q	1.19053E-05
q162	14600	2.38E-05	q	1.19053E-05
q163	13900	2.38E-05	q	1.19053E-05
q164	29100	2.38E-05	q	1.19053E-05
q167	38300	2.38E-05	q	1.19053E-05
q168	26200	2.38E-05	q	1.19053E-05
q169	20800	2.38E-05	q	1.19053E-05
q170	18200	2.38E-05	q	1.19053E-05
q171	16700	2.38E-05	q	1.19053E-05
q172	17400	2.38E-05	q	1.19053E-05
q173	61700	2.38E-05	q	1.19053E-05
q177	66800	2.38E-05	q	1.19053E-05
q178	46600	2.38E-05	q	1.19053E-05
q179	70300	2.38E-05	q	1.19053E-05
q180	60600	2.38E-05	q	1.19053E-05
q181	66300	2.38E-05	q	1.19053E-05
q186	62800	2.38E-05	q	1.19053E-05
q187	55200	2.38E-05	q	1.19053E-05
q188	63100	2.38E-05	q	1.19053E-05
q190	61100	2.38E-05	q	1.19053E-05
q191	52400	2.38E-05	q	1.19053E-05
q192	46700	2.38E-05	q	1.19053E-05
q193	41800	2.38E-05	q	1.19053E-05
q194	39300	2.38E-05	q	1.19053E-05
q195	37000	2.38E-05	q	1.19053E-05
q196	34700	2.38E-05	q	1.19053E-05
q197	32400	2.38E-05	q	1.19053E-05
q198	30800	2.38E-05	q	1.19053E-05
q199	29100	2.38E-05	q	1.19053E-05
q200	27000	2.38E-05	q	1.19053E-05
q201	26200	2.38E-05	q	1.19053E-05
q202	34000	2.38E-05	q	1.19053E-05
q203	34600	2.38E-05	q	1.19053E-05
q204	30400	2.38E-05	q	1.19053E-05
q205	28800	2.38E-05	q	1.19053E-05
q206	27800	2.38E-05	q	1.19053E-05
q207	27100	2.38E-05	q	1.19053E-05
q208	26700	2.38E-05	q	1.19053E-05
q209	26800	2.38E-05	q	1.19053E-05
q210	25600	2.38E-05	q	1.19053E-05
q211	24600	2.38E-05	q	1.19053E-05
q212	24700	2.38E-05	q	1.19053E-05
q213	25000	2.38E-05	q	1.19053E-05
q214	25400	2.38E-05	q	1.19053E-05
q215	24600	2.38E-05	q	1.19053E-05
q216	24400	2.38E-05	q	1.19053E-05
q217	24000	2.38E-05	q	1.19053E-05
q218	23600	2.38E-05	q	1.19053E-05
q221	26800	2.38E-05	q	1.19053E-05
q222	26400	2.38E-05	q	1.19053E-05
q223	24800	2.38E-05	q	1.19053E-05
q224	24200	2.38E-05	q	1.19053E-05
q225	24200	2.38E-05	q	1.19053E-05
q227	25400	2.38E-05	q	1.19053E-05
q228	22800	2.38E-05	q	1.19053E-05
q229	22100	2.38E-05	q	1.19053E-05
q230	22200	2.38E-05	q	1.19053E-05
q231	22400	2.38E-05	q	1.19053E-05
q232	27800	2.38E-05	q	1.19053E-05
q233	22300	2.38E-05	q	1.19053E-05
q234	24600	2.38E-05	q	1.19053E-05
q235	22700	2.38E-05	q	1.19053E-05
q236	26000	2.38E-05	q	1.19053E-05
q237	23100	2.38E-05	q	1.19053E-05
q238	22300	2.38E-05	q	1.19053E-05
q239	21500	2.38E-05	q	1.19053E-05
q240	20900	2.38E-05	q	1.19053E-05
q241	20600	2.38E-05	q	1.19053E-05
q242	20100	2.38E-05	q	1.19053E-05
q243	21800	2.38E-05	q	1.19053E-05
q244	19900	2.38E-05	q	1.19053E-05
q245	19700	2.38E-05	q	1.19053E-05
q246	19400	2.38E-05	q	1.19053E-05
q247	19600	2.38E-05	q	1.19053E-05
q248	20000	2.38E-05	q	1.19053E-05
q249	20500	2.38E-05	q	1.19053E-05
q250	22200	2.38E-05	q	1.19053E-05
q251	21400	2.38E-05	q	1.19053E-05
q252	31000	2.38E-05	q	1.19053E-05
q253	61600	2.38E-05	q	1.19053E-05
q254	52600	2.38E-05	q	1.19053E-05
q255	37000	2.38E-05	q	1.19053E-05
q256	33500	2.38E-05	q	1.19053E-05
q257	35900	2.38E-05	q	1.19053E-05
q258	38300	2.38E-05	q	1.19053E-05
q259	33700	2.38E-05	q	1.19053E-05
q260	34100	2.38E-05	q	1.19053E-05
q261	43000	2.38E-05	q	1.19053E-05
q262	43000	2.38E-05	q	1.19053E-05
q263	41700	2.38E-05	q	1.19053E-05
q264	49700	2.38E-05	q	1.19053E-05
q265	41300	2.38E-05	q	1.19053E-05
q266	36600	2.38E-05	q	1.19053E-05
q267	35600	2.38E-05	q	1.19053E-05
q268	34200	2.38E-05	q	1.19053E-05
q269	32900	2.38E-05	q	1.19053E-05
q270	33300	2.38E-05	q	1.19053E-05
q271	35600	2.38E-05	q	1.19053E-05
q272	38500	2.38E-05	q	1.19053E-05
q273	39900	2.38E-05	q	1.19053E-05
q274	39800	2.38E-05	q	1.19053E-05
q275	40900	2.38E-05	q	1.19053E-05
q276	43000	2.38E-05	q	1.19053E-05
q277	40800	2.38E-05	q	1.19053E-05
q278	39600	2.38E-05	q	1.19053E-05
q279	37800	2.38E-05	q	1.19053E-05
q280	38100	2.38E-05	q	1.19053E-05
q281	38000	2.38E-05	q	1.19053E-05
q282	39000	2.38E-05	q	1.19053E-05
q283	36200	2.38E-05	q	1.19053E-05
q284	34200	2.38E-05	q	1.19053E-05
q285	33600	2.38E-05	q	1.19053E-05
q286	32700	2.38E-05	q	1.19053E-05
q287	30900	2.38E-05	q	1.19053E-05
q288	32100	2.38E-05	q	1.19053E-05
q289	34100	2.38E-05	q	1.19053E-05
q290	35600	2.38E-05	q	1.19053E-05
q291	38700	2.38E-05	q	1.19053E-05
q292	41900	2.38E-05	q	1.19053E-05
q293	43800	2.38E-05	q	1.19053E-05
q294	44700	2.38E-05	q	1.19053E-05
q295	49400	2.38E-05	q	1.19053E-05
q296	46000	2.38E-05	q	1.19053E-05
q297	44900	2.38E-05	q	1.19053E-05
q298	50000	2.38E-05	q	1.19053E-05
q299	45900	2.38E-05	q	1.19053E-05
q300	41900	2.38E-05	q	1.19053E-05
q301	43300	2.38E-05	q	1.19053E-05
q302	45900	2.38E-05	q	1.19053E-05
q303	49300	2.38E-05	q	1.19053E-05
q304	52300	2.38E-05	q	1.19053E-05
q305	50600	2.38E-05	q	1.19053E-05
q306	48700	2.38E-05	q	1.19053E-05
q307	49500	2.38E-05	q	1.19053E-05
q308	51000	2.38E-05	q	1.19053E-05
q309	50800	2.38E-05	q	1.19053E-05
q310	45300	2.38E-05	q	1.19053E-05
q311	42700	2.38E-05	q	1.19053E-05
q312	41100	2.38E-05	q	1.19053E-05
q313	39600	2.38E-05	q	1.19053E-05
q314	35700	2.38E-05	q	1.19053E-05
q315	33500	2.38E-05	q	1.19053E-05
q316	35400	2.38E-05	q	1.19053E-05
q317	32300	2.38E-05	q	1.19053E-05
q318	30500	2.38E-05	q	1.19053E-05
q319	29500	2.38E-05	q	1.19053E-05
q320	31500	2.38E-05	q	1.19053E-05
q321	36000	2.38E-05	q	1.19053E-05
q322	42800	2.38E-05	q	1.19053E-05
q323	52100	2.38E-05	q	1.19053E-05
q324	57400	2.38E-05	q	1.19053E-05
q325	55200	2.38E-05	q	1.19053E-05
q326	57300	2.38E-05	q	1.19053E-05
q327	57500	2.38E-05	q	1.19053E-05
q328	61400	2.38E-05	q	1.19053E-05
q329	63400	2.38E-05	q	1.19053E-05
q330	65300	2.38E-05	q	1.19053E-05
q331	66600	2.38E-05	q	1.19053E-05
q338	70500	2.38E-05	q	1.19053E-05
q339	67300	2.38E-05	q	1.19053E-05
q340	67200	2.38E-05	q	1.19053E-05
q341	73200	2.38E-05	q	1.19053E-05
q345	74800	2.38E-05	q	1.19053E-05
q346	74800	2.38E-05	q	1.19053E-05
q347	74300	2.38E-05	q	1.19053E-05
q349	75100	2.38E-05	q	1.19053E-05
q350	70000	2.38E-05	q	1.19053E-05
q351	66600	2.38E-05	q	1.19053E-05
q352	65300	2.38E-05	q	1.19053E-05
q358	71400	2.38E-05	q	1.19053E-05
q359	72100	2.38E-05	q	1.19053E-05
q360	64900	2.38E-05	q	1.19053E-05
q361	58400	2.38E-05	q	1.19053E-05
q362	57900	2.38E-05	q	1.19053E-05
q363	58500	2.38E-05	q	1.19053E-05
q364	57800	2.38E-05	q	1.19053E-05
q365	57300	2.38E-05	q	1.19053E-05
q366	59200	2.38E-05	q	1.19053E-05
q367	62700	2.38E-05	q	1.19053E-05
q368	60300	2.38E-05	q	1.19053E-05
q369	61600	2.38E-05	q	1.19053E-05
q370	59100	2.38E-05	q	1.19053E-05
q371	57200	2.38E-05	q	1.19053E-05
q372	57200	2.38E-05	q	1.19053E-05
q373	61200	2.38E-05	q	1.19053E-05
q374	69400	2.38E-05	q	1.19053E-05
q375	57200	2.38E-05	q	1.19053E-05
q376	51100	2.38E-05	q	1.19053E-05
q377	48600	2.38E-05	q	1.19053E-05
q378	49200	2.38E-05	q	1.19053E-05
q379	50200	2.38E-05	q	1.19053E-05
q380	51000	2.38E-05	q	1.19053E-05
q381	51700	2.38E-05	q	1.19053E-05
q382	52400	2.38E-05	q	1.19053E-05
q383	49900	2.38E-05	q	1.19053E-05
q384	48100	2.38E-05	q	1.19053E-05
q385	46600	2.38E-05	q	1.19053E-05
q386	46500	2.38E-05	q	1.19053E-05
q387	47600	2.38E-05	q	1.19053E-05
q388	44800	2.38E-05	q	1.19053E-05
q389	45300	2.38E-05	q	1.19053E-05
q390	45900	2.38E-05	q	1.19053E-05
q391	46000	2.38E-05	q	1.19053E-05
q392	45000	2.38E-05	q	1.19053E-05
q393	44900	2.38E-05	q	1.19053E-05
q394	43200	2.38E-05	q	1.19053E-05
q395	43300	2.38E-05	q	1.19053E-05
q396	42200	2.38E-05	q	1.19053E-05
q397	39900	2.38E-05	q	1.19053E-05
q398	42700	2.38E-05	q	1.19053E-05
q399	41600	2.38E-05	q	1.19053E-05
q400	41400	2.38E-05	q	1.19053E-05
q401	41600	2.38E-05	q	1.19053E-05
q402	41500	2.38E-05	q	1.19053E-05
q403	40000	2.38E-05	q	1.19053E-05
q404	39000	2.38E-05	q	1.19053E-05
q405	37600	2.38E-05	q	1.19053E-05
q406	37600	2.38E-05	q	1.19053E-05
q407	36700	2.38E-05	q	1.19053E-05
q408	35800	2.38E-05	q	1.19053E-05
q409	35500	2.38E-05	q	1.19053E-05
q410	36400	2.38E-05	q	1.19053E-05
q411	36300	2.38E-05	q	1.19053E-05
q412	36000	2.38E-05	q	1.19053E-05
q413	35800	2.38E-05	q	1.19053E-05
q414	37700	2.38E-05	q	1.19053E-05
q415	37400	2.38E-05	q	1.19053E-05
q416	36900	2.38E-05	q	1.19053E-05
q417	35300	2.38E-05	q	1.19053E-05
q418	32500	2.38E-05	q	1.19053E-05
q419	31000	2.38E-05	q	1.19053E-05
q420	30500	2.38E-05	q	1.19053E-05
q421	29900	2.38E-05	q	1.19053E-05
q422	29400	2.38E-05	q	1.19053E-05
q423	28500	2.38E-05	q	1.19053E-05
q424	27600	2.38E-05	q	1.19053E-05
q425	27100	2.38E-05	q	1.19053E-05
q426	26600	2.38E-05	q	1.19053E-05
q427	26100	2.38E-05	q	1.19053E-05
q428	25400	2.38E-05	q	1.19053E-05
q429	25200	2.38E-05	q	1.19053E-05
q430	24800	2.38E-05	q	1.19053E-05
q431	24400	2.38E-05	q	1.19053E-05
q432	23800	2.38E-05	q	1.19053E-05
q433	23900	2.38E-05	q	1.19053E-05
q434	23700	2.38E-05	q	1.19053E-05
q435	23400	2.38E-05	q	1.19053E-05
q436	23000	2.38E-05	q	1.19053E-05
q437	22800	2.38E-05	q	1.19053E-05
q438	22300	2.38E-05	q	1.19053E-05
q439	21900	2.38E-05	q	1.19053E-05
q440	21800	2.38E-05	q	1.19053E-05
q441	21700	2.38E-05	q	1.19053E-05
q442	21700	2.38E-05	q	1.19053E-05
q443	21900	2.38E-05	q	1.19053E-05
q444	21800	2.38E-05	q	1.19053E-05
q445	21500	2.38E-05	q	1.19053E-05
q446	21500	2.38E-05	q	1.19053E-05
q447	21900	2.38E-05	q	1.19053E-05
q448	22000	2.38E-05	q	1.19053E-05
q449	20900	2.38E-05	q	1.19053E-05
q450	20100	2.38E-05	q	1.19053E-05
q451	19500	2.38E-05	q	1.19053E-05
q452	19300	2.38E-05	q	1.19053E-05
q453	19200	2.38E-05	q	1.19053E-05
q454	19100	2.38E-05	q	1.19053E-05
q455	18700	2.38E-05	q	1.19053E-05
q456	19300	2.38E-05	q	1.19053E-05
q457	18900	2.38E-05	q	1.19053E-05
q458	18500	2.38E-05	q	1.19053E-05
q459	18400	2.38E-05	q	1.19053E-05
q460	18300	2.38E-05	q	1.19053E-05
q461	18200	2.38E-05	q	1.19053E-05
q462	17900	2.38E-05	q	1.19053E-05
q463	18000	2.38E-05	q	1.19053E-05
q464	17800	2.38E-05	q	1.19053E-05
q465	17500	2.38E-05	q	1.19053E-05
q466	17500	2.38E-05	q	1.19053E-05
q467	17300	2.38E-05	q	1.19053E-05
q468	17300	2.38E-05	q	1.19053E-05
q469	23300	2.38E-05	q	1.19053E-05
q470	27800	2.38E-05	q	1.19053E-05
q471	19500	2.38E-05	q	1.19053E-05
q472	18200	2.38E-05	q	1.19053E-05
q473	18000	2.38E-05	q	1.19053E-05
q474	17500	2.38E-05	q	1.19053E-05
q475	17300	2.38E-05	q	1.19053E-05
q476	17100	2.38E-05	q	1.19053E-05
q477	16900	2.38E-05	q	1.19053E-05
q478	18600	2.38E-05	q	1.19053E-05
q479	19300	2.38E-05	q	1.19053E-05
q480	18100	2.38E-05	q	1.19053E-05
q481	17100	2.38E-05	q	1.19053E-05
q482	16800	2.38E-05	q	1.19053E-05
q487	14600	2.38E-05	q	1.19053E-05
q492	15200	2.38E-05	q	1.19053E-05
q493	18900	2.38E-05	q	1.19053E-05
q494	17000	2.38E-05	q	1.19053E-05
q495	15400	2.38E-05	q	1.19053E-05
q496	15400	2.38E-05	q	1.19053E-05
q497	15200	2.38E-05	q	1.19053E-05
q498	14900	2.38E-05	q	1.19053E-05
q499	15300	2.38E-05	q	1.19053E-05
q500	15500	2.38E-05	q	1.19053E-05
q501	17600	2.38E-05	q	1.19053E-05
q502	16100	2.38E-05	q	1.19053E-05
q503	28900	2.38E-05	q	1.19053E-05
q504	36400	2.38E-05	q	1.19053E-05
q505	22300	2.38E-05	q	1.19053E-05
q506	19200	2.38E-05	q	1.19053E-05
q507	18300	2.38E-05	q	1.19053E-05
q508	17800	2.38E-05	q	1.19053E-05
q509	17400	2.38E-05	q	1.19053E-05
q510	17000	2.38E-05	q	1.19053E-05
q511	16700	2.38E-05	q	1.19053E-05
q516	58100	2.38E-05	q	1.19053E-05
q517	42000	2.38E-05	q	1.19053E-05
q518	35600	2.38E-05	q	1.19053E-05
q519	33100	2.38E-05	q	1.19053E-05
q520	29100	2.38E-05	q	1.19053E-05
q521	25800	2.38E-05	q	1.19053E-05
q522	24400	2.38E-05	q	1.19053E-05
q523	23600	2.38E-05	q	1.19053E-05
q524	23600	2.38E-05	q	1.19053E-05
q525	23700	2.38E-05	q	1.19053E-05
q526	23500	2.38E-05	q	1.19053E-05
q527	22600	2.38E-05	q	1.19053E-05
q528	23000	2.38E-05	q	1.19053E-05
q529	22600	2.38E-05	q	1.19053E-05
q530	35900	2.38E-05	q	1.19053E-05
q532	67100	2.38E-05	q	1.19053E-05
q533	45400	2.38E-05	q	1.19053E-05
q534	36900	2.38E-05	q	1.19053E-05
q535	32300	2.38E-05	q	1.19053E-05
q536	29300	2.38E-05	q	1.19053E-05
q537	27700	2.38E-05	q	1.19053E-05
q538	25800	2.38E-05	q	1.19053E-05
q539	24400	2.38E-05	q	1.19053E-05
q540	23700	2.38E-05	q	1.19053E-05
q541	22200	2.38E-05	q	1.19053E-05
q542	21700	2.38E-05	q	1.19053E-05
q543	21200	2.38E-05	q	1.19053E-05
q544	20900	2.38E-05	q	1.19053E-05
q545	20300	2.38E-05	q	1.19053E-05
q546	19900	2.38E-05	q	1.19053E-05
q547	19600	2.38E-05	q	1.19053E-05
q548	19800	2.38E-05	q	1.19053E-05
q549	26300	2.38E-05	q	1.19053E-05
q550	68100	2.38E-05	q	1.19053E-05
q552	46100	2.38E-05	q	1.19053E-05
q553	38300	2.38E-05	q	1.19053E-05
q554	34100	2.38E-05	q	1.19053E-05
q555	43100	2.38E-05	q	1.19053E-05
q556	37800	2.38E-05	q	1.19053E-05
q557	33200	2.38E-05	q	1.19053E-05
q558	29800	2.38E-05	q	1.19053E-05
q559	47700	2.38E-05	q	1.19053E-05
q561	71800	2.38E-05	q	1.19053E-05
q562	51500	2.38E-05	q	1.19053E-05
q563	43500	2.38E-05	q	1.19053E-05
q564	43800	2.38E-05	q	1.19053E-05
q565	73300	2.38E-05	q	1.19053E-05
q569	60000	2.38E-05	q	1.19053E-05
q570	49700	2.38E-05	q	1.19053E-05
q571	44400	2.38E-05	q	1.19053E-05
q572	39700	2.38E-05	q	1.19053E-05
q573	35800	2.38E-05	q	1.19053E-05
q574	33000	2.38E-05	q	1.19053E-05
q575	32200	2.38E-05	q	1.19053E-05
q576	40900	2.38E-05	q	1.19053E-05
q577	68900	2.38E-05	q	1.19053E-05
q578	58700	2.38E-05	q	1.19053E-05
q579	55000	2.38E-05	q	1.19053E-05
q580	50300	2.38E-05	q	1.19053E-05
q581	45900	2.38E-05	q	1.19053E-05
q582	43600	2.38E-05	q	1.19053E-05
q583	42100	2.38E-05	q	1.19053E-05
q584	38200	2.38E-05	q	1.19053E-05
q585	35700	2.38E-05	q	1.19053E-05
q586	34300	2.38E-05	q	1.19053E-05
q587	33400	2.38E-05	q	1.19053E-05
q588	33000	2.38E-05	q	1.19053E-05
q589	33300	2.38E-05	q	1.19053E-05
q590	33300	2.38E-05	q	1.19053E-05
q591	31000	2.38E-05	q	1.19053E-05
q592	31500	2.38E-05	q	1.19053E-05
q593	28900	2.38E-05	q	1.19053E-05
q594	27600	2.38E-05	q	1.19053E-05
q595	26600	2.38E-05	q	1.19053E-05
q596	27600	2.38E-05	q	1.19053E-05
q597	25700	2.38E-05	q	1.19053E-05
q598	25100	2.38E-05	q	1.19053E-05
q599	25500	2.38E-05	q	1.19053E-05
q600	25000	2.38E-05	q	1.19053E-05
q601	25300	2.38E-05	q	1.19053E-05
q602	25500	2.38E-05	q	1.19053E-05
q603	31900	2.38E-05	q	1.19053E-05
q604	35800	2.38E-05	q	1.19053E-05
q605	28300	2.38E-05	q	1.19053E-05
q606	53700	2.38E-05	q	1.19053E-05
q609	74700	2.38E-05	q	1.19053E-05
q610	57700	2.38E-05	q	1.19053E-05
q611	48600	2.38E-05	q	1.19053E-05
q612	44000	2.38E-05	q	1.19053E-05
q613	41000	2.38E-05	q	1.19053E-05
q614	37800	2.38E-05	q	1.19053E-05
q615	35500	2.38E-05	q	1.19053E-05
q616	33200	2.38E-05	q	1.19053E-05
q617	31800	2.38E-05	q	1.19053E-05
q618	30100	2.38E-05	q	1.19053E-05
q619	29300	2.38E-05	q	1.19053E-05
q620	30800	2.38E-05	q	1.19053E-05
q621	32400	2.38E-05	q	1.19053E-05
q622	31400	2.38E-05	q	1.19053E-05
q623	31000	2.38E-05	q	1.19053E-05
q624	29900	2.38E-05	q	1.19053E-05
q625	29300	2.38E-05	q	1.19053E-05
q626	29800	2.38E-05	q	1.19053E-05
q627	30300	2.38E-05	q	1.19053E-05
q628	29900	2.38E-05	q	1.19053E-05
q629	29500	2.38E-05	q	1.19053E-05
q630	29800	2.38E-05	q	1.19053E-05
q631	31000	2.38E-05	q	1.19053E-05
q632	29800	2.38E-05	q	1.19053E-05
q633	30300	2.38E-05	q	1.19053E-05
q634	29600	2.38E-05	q	1.19053E-05
q635	29700	2.38E-05	q	1.19053E-05
q636	28600	2.38E-05	q	1.19053E-05
q637	26400	2.38E-05	q	1.19053E-05
q638	25000	2.38E-05	q	1.19053E-05
q639	24000	2.38E-05	q	1.19053E-05
q640	23500	2.38E-05	q	1.19053E-05
q641	24500	2.38E-05	q	1.19053E-05
q642	25600	2.38E-05	q	1.19053E-05
q643	26500	2.38E-05	q	1.19053E-05
q644	27300	2.38E-05	q	1.19053E-05
q645	29400	2.38E-05	q	1.19053E-05
q646	29900	2.38E-05	q	1.19053E-05
q647	27200	2.38E-05	q	1.19053E-05
q648	26300	2.38E-05	q	1.19053E-05
q649	27100	2.38E-05	q	1.19053E-05
q650	28800	2.38E-05	q	1.19053E-05
q651	28700	2.38E-05	q	1.19053E-05
q652	31900	2.38E-05	q	1.19053E-05
q653	36400	2.38E-05	q	1.19053E-05
q654	40900	2.38E-05	q	1.19053E-05
q655	48000	2.38E-05	q	1.19053E-05
q656	45100	2.38E-05	q	1.19053E-05
q657	42300	2.38E-05	q	1.19053E-05
q658	40300	2.38E-05	q	1.19053E-05
q659	35700	2.38E-05	q	1.19053E-05
q660	33200	2.38E-05	q	1.19053E-05
q661	33100	2.38E-05	q	1.19053E-05
q662	34700	2.38E-05	q	1.19053E-05
q663	36000	2.38E-05	q	1.19053E-05
q664	35500	2.38E-05	q	1.19053E-05
q665	32100	2.38E-05	q	1.19053E-05
q666	28700	2.38E-05	q	1.19053E-05
q667	27400	2.38E-05	q	1.19053E-05
q668	27500	2.38E-05	q	1.19053E-05
q669	30700	2.38E-05	q	1.19053E-05
q670	35300	2.38E-05	q	1.19053E-05
q671	39000	2.38E-05	q	1.19053E-05
q672	43700	2.38E-05	q	1.19053E-05
q673	49200	2.38E-05	q	1.19053E-05
q674	44700	2.38E-05	q	1.19053E-05
q675	41300	2.38E-05	q	1.19053E-05
q676	38700	2.38E-05	q	1.19053E-05
q677	35400	2.38E-05	q	1.19053E-05
q678	34600	2.38E-05	q	1.19053E-05
q679	33700	2.38E-05	q	1.19053E-05
q680	31900	2.38E-05	q	1.19053E-05
q681	31000	2.38E-05	q	1.19053E-05
q682	30900	2.38E-05	q	1.19053E-05
q683	36700	2.38E-05	q	1.19053E-05
q684	39000	2.38E-05	q	1.19053E-05
q685	41900	2.38E-05	q	1.19053E-05
q686	43500	2.38E-05	q	1.19053E-05
q687	45500	2.38E-05	q	1.19053E-05
q688	47400	2.38E-05	q	1.19053E-05
q689	49000	2.38E-05	q	1.19053E-05
q690	49900	2.38E-05	q	1.19053E-05
q691	49000	2.38E-05	q	1.19053E-05
q692	51300	2.38E-05	q	1.19053E-05
q693	53600	2.38E-05	q	1.19053E-05
q694	42600	2.38E-05	q	1.19053E-05
q695	38700	2.38E-05	q	1.19053E-05
q696	41700	2.38E-05	q	1.19053E-05
q697	44800	2.38E-05	q	1.19053E-05
q698	47700	2.38E-05	q	1.19053E-05
q699	47500	2.38E-05	q	1.19053E-05
q700	49100	2.38E-05	q	1.19053E-05
q701	55900	2.38E-05	q	1.19053E-05
q702	55300	2.38E-05	q	1.19053E-05
q703	51400	2.38E-05	q	1.19053E-05
q704	50500	2.38E-05	q	1.19053E-05
q705	52500	2.38E-05	q	1.19053E-05
q706	54100	2.38E-05	q	1.19053E-05
q707	54700	2.38E-05	q	1.19053E-05
q708	54700	2.38E-05	q	1.19053E-05
q709	57400	2.38E-05	q	1.19053E-05
q710	59400	2.38E-05	q	1.19053E-05
q711	59300	2.38E-05	q	1.19053E-05
q712	58600	2.38E-05	q	1.19053E-05
q713	61500	2.38E-05	q	1.19053E-05
q714	61200	2.38E-05	q	1.19053E-05
q715	68800	2.38E-05	q	1.19053E-05
q719	68800	2.38E-05	q	1.19053E-05
q720	61000	2.38E-05	q	1.19053E-05
q721	57300	2.38E-05	q	1.19053E-05
q722	53000	2.38E-05	q	1.19053E-05
q723	51300	2.38E-05	q	1.19053E-05
q724	56000	2.38E-05	q	1.19053E-05
q725	59300	2.38E-05	q	1.19053E-05
q726	57500	2.38E-05	q	1.19053E-05
q727	53100	2.38E-05	q	1.19053E-05
q728	50100	2.38E-05	q	1.19053E-05
q729	49800	2.38E-05	q	1.19053E-05
q730	48800	2.38E-05	q	1.19053E-05
q731	47700	2.38E-05	q	1.19053E-05
q732	46700	2.38E-05	q	1.19053E-05
q733	45500	2.38E-05	q	1.19053E-05
q734	45400	2.38E-05	q	1.19053E-05
q735	45400	2.38E-05	q	1.19053E-05
q736	42700	2.38E-05	q	1.19053E-05
q737	43400	2.38E-05	q	1.19053E-05
q738	43100	2.38E-05	q	1.19053E-05
q739	43200	2.38E-05	q	1.19053E-05
q740	41900	2.38E-05	q	1.19053E-05
q741	42500	2.38E-05	q	1.19053E-05
q742	40800	2.38E-05	q	1.19053E-05
q743	40200	2.38E-05	q	1.19053E-05
q744	39300	2.38E-05	q	1.19053E-05
q745	37900	2.38E-05	q	1.19053E-05
q746	36600	2.38E-05	q	1.19053E-05
q747	37400	2.38E-05	q	1.19053E-05
q748	37300	2.38E-05	q	1.19053E-05
q749	36500	2.38E-05	q	1.19053E-05
q750	36400	2.38E-05	q	1.19053E-05
q751	35000	2.38E-05	q	1.19053E-05
q752	34200	2.38E-05	q	1.19053E-05
q753	33500	2.38E-05	q	1.19053E-05
q754	33300	2.38E-05	q	1.19053E-05
q755	32600	2.38E-05	q	1.19053E-05
q756	32100	2.38E-05	q	1.19053E-05
q757	31700	2.38E-05	q	1.19053E-05
q758	31200	2.38E-05	q	1.19053E-05
q759	31100	2.38E-05	q	1.19053E-05
q760	30700	2.38E-05	q	1.19053E-05
q761	30500	2.38E-05	q	1.19053E-05
q762	29300	2.38E-05	q	1.19053E-05
q763	29100	2.38E-05	q	1.19053E-05
q764	28900	2.38E-05	q	1.19053E-05
q765	28800	2.38E-05	q	1.19053E-05
q766	28500	2.38E-05	q	1.19053E-05
q767	27900	2.38E-05	q	1.19053E-05
q768	28100	2.38E-05	q	1.19053E-05
q769	28100	2.38E-05	q	1.19053E-05
q770	27400	2.38E-05	q	1.19053E-05
q771	27000	2.38E-05	q	1.19053E-05
q772	26900	2.38E-05	q	1.19053E-05
q773	26300	2.38E-05	q	1.19053E-05
q774	25800	2.38E-05	q	1.19053E-05
q775	25400	2.38E-05	q	1.19053E-05
q776	25200	2.38E-05	q	1.19053E-05
q777	24800	2.38E-05	q	1.19053E-05
q778	24700	2.38E-05	q	1.19053E-05
q779	24500	2.38E-05	q	1.19053E-05
q780	24100	2.38E-05	q	1.19053E-05
q781	23400	2.38E-05	q	1.19053E-05
q782	23400	2.38E-05	q	1.19053E-05
q783	26200	2.38E-05	q	1.19053E-05
q784	23100	2.38E-05	q	1.19053E-05
q785	23000	2.38E-05	q	1.19053E-05