pcf
* control data
restart  estimation
74  5303    18     0     2
2    2 single point   1   0   0
10.0  -3  0.3  0.03  10  lamforgive derforgive
10.0  10.0  0.001
0.1  noaui
-2  0.005  4  4  0.005  4
0  0  0  PARSAVEITN reisaveitn
* singular value decomposition
1
74 5E-07
0
* parameter groups
ddsd         relative 0.025  0.0  switch  2.0 parabolic 1.0e-4 0.5 smaller
ddsw         relative 0.025  0.0  switch  2.0 parabolic 1.0e-4 0.5 smaller
ddgd         relative 0.025  0.0  switch  2.0 parabolic 1.0e-4 0.5 smaller
ddgw         relative 0.025  0.0  switch  2.0 parabolic 1.0e-4 0.5 smaller
rcsd         relative 0.025  0.0  switch  2.0 parabolic 1.0e-4 0.5 smaller
rcsw         relative 0.025  0.0  switch  2.0 parabolic 1.0e-4 0.5 smaller
rcrd         relative 0.025  0.0  switch  2.0 parabolic 1.0e-4 0.5 smaller
rcrw         relative 0.025  0.0  switch  2.0 parabolic 1.0e-4 0.5 smaller
rcgd         relative 0.025  0.0  switch  2.0 parabolic 1.0e-4 0.5 smaller
rcgw         relative 0.025  0.0  switch  2.0 parabolic 1.0e-4 0.5 smaller
tl           relative 0.025  0.0  switch  2.0 parabolic 1.0e-4 0.5 smaller
xw           relative 0.025  0.0  switch  2.0 parabolic 1.0e-4 0.5 smaller
yw           relative 0.025  0.0  switch  2.0 parabolic 1.0e-4 0.5 smaller
x            relative 0.025  0.0  switch  2.0 parabolic 1.0e-4 0.5 smaller
y            relative 0.025  0.0  switch  2.0 parabolic 1.0e-4 0.5 smaller
tlr			 relative 0.5  0.0  switch  2.0 parabolic 1.0e-4 0.5 smaller
tls			 relative 0.5  0.0  switch  2.0 parabolic 1.0e-4 0.5 smaller
beta			 relative 0.025  0.0  switch  2.0 parabolic 1.0e-4 0.5 smaller
* parameter data
ddsd	log	factor   0.1343800      1.00e-08	1.1	ddsd	1	0	1
ddsw	log	factor   0.2109100      1.00e-08	1.1	ddsw	1	0	1
ddgd	log	factor    1.100000      1.00e-08	1.1	ddgd	1	0	1
ddgw	log	factor    1.100000      1.00e-08	1.1	ddgw	1	0	1
rcs1d	log	factor   0.7252407      1.00e-08	2	rcsd	1	0	1
rcs1w	log	factor   0.6371544      1.00e-08	2	rcsw	1	0	1
rcs2d	log	factor   0.7985896      1.00e-08	2	rcsd	1	0	1
rcs2w	log	factor   0.6200177      1.00e-08	2	rcsw	1	0	1
rcs3d	log	factor    1.278946      1.00e-08	2	rcsd	1	0	1
rcs3w	log	factor   0.5314231      1.00e-08	2	rcsw	1	0	1
rcs4d	log	factor    2.000000      1.00e-08	2	rcsd	1	0	1
rcs4w	log	factor   0.2515153      1.00e-08	2	rcsw	1	0	1
rcs5d	log	factor    2.000000      1.00e-08	2	rcsd	1	0	1
rcs5w	log	factor   8.1054623E-02  1.00e-08	2	rcsw	1	0	1
rcs6d	log	factor    2.000000      1.00e-08	2	rcsd	1	0	1
rcs6w	log	factor   4.8357767E-02  1.00e-08	2	rcsw	1	0	1
rcs7d	log	factor   5.8374934E-02  1.00e-08	2	rcsd	1	0	1
rcs7w	log	factor    1.481037      1.00e-08	2	rcsw	1	0	1
rcs8d	log	factor    1.874756      1.00e-08	2	rcsd	1	0	1
rcs8w	log	factor   4.3425188E-02  1.00e-08	2	rcsw	1	0	1
rcs9d	log	factor    2.000000      1.00e-08	2	rcsd	1	0	1
rcs9w	log	factor    1.837166      1.00e-08	2	rcsw	1	0	1
rcs10d	log	factor    2.000000      1.00e-08	2	rcsd	1	0	1
rcs10w	log	factor    1.865972      1.00e-08	2	rcsw	1	0	1
rcs11d	log	factor    1.521975      1.00e-08	2	rcsd	1	0	1
rcs11w	log	factor    2.000000      1.00e-08	2	rcsw	1	0	1
rcs12d	log	factor    1.600381      1.00e-08	2	rcsd	1	0	1
rcs12w	log	factor    2.000000      1.00e-08	2	rcsw	1	0	1
rcs13d	log	factor   0.7625020      1.00e-08	2	rcsd	1	0	1
rcs13w	log	factor   0.8275610      1.00e-08	2	rcsw	1	0	1
rcs14d	log	factor   0.7510974      1.00e-08	2	rcsd	1	0	1
rcs14w	log	factor   0.6765679      1.00e-08	2	rcsw	1	0	1
rcs15d	log	factor   0.7396270      1.00e-08	2	rcsd	1	0	1
rcs15w	log	factor   0.6579270      1.00e-08	2	rcsw	1	0	1
rcr1d	log	factor   0.9815727      1.00e-08	1	rcrd	1	0	1
rcr1w	log	factor   0.9202954      1.00e-08	1	rcrw	1	0	1
rcr2d	log	factor   0.4866278      1.00e-08	1	rcrd	1	0	1
rcr2w	log	factor   0.4224536      1.00e-08	1	rcrw	1	0	1
rcr3d	log	factor    1.000000      1.00e-08	1	rcrd	1	0	1
rcr3w	log	factor   0.5607978      1.00e-08	1	rcrw	1	0	1
rcr4d	log	factor   0.1122652      1.00e-08	1	rcrd	1	0	1
rcr4w	log	factor    1.000000      1.00e-08	1	rcrw	1	0	1
rcr5d	log	factor   0.9959797      1.00e-08	1	rcrd	1	0	1
rcr5w	log	factor    1.000000      1.00e-08	1	rcrw	1	0	1
rcr6d	log	factor   5.3671790E-02  1.00e-08	1	rcrd	1	0	1
rcr6w	log	factor   4.1067619E-02  1.00e-08	1	rcrw	1	0	1
rcr7d	log	factor   1.6140143E-02  1.00e-08	1	rcrd	1	0	1
rcr7w	log	factor   2.6975999E-02  1.00e-08	1	rcrw	1	0	1
rcr8d	log	factor   8.3340191E-03  1.00e-08	1	rcrd	1	0	1
rcr8w	log	factor   1.7370289E-02  1.00e-08	1	rcrw	1	0	1
rcr9d	log	factor   1.5353656E-02  1.00e-08	1	rcrd	1	0	1
rcr9w	log	factor   1.4151737E-02  1.00e-08	1	rcrw	1	0	1
rcr10d	log	factor   0.1438273      1.00e-08	1	rcrd	1	0	1
rcr10w	log	factor   1.3085893E-02  1.00e-08	1	rcrw	1	0	1
rcr11d	log	factor   1.2229168E-02  1.00e-08	1	rcrd	1	0	1
rcr11w	log	factor    1.000000      1.00e-08	1	rcrw	1	0	1
rcr12d	log	factor   3.9020784E-02  1.00e-08	1	rcrd	1	0	1
rcr12w	log	factor   0.3898877      1.00e-08	1	rcrw	1	0	1
rcr13d	log	factor    1.000000      1.00e-08	1	rcrd	1	0	1
rcr13w	log	factor   0.8822897      1.00e-08	1	rcrw	1	0	1
rcr14d	log	factor   0.9846833      1.00e-08	1	rcrd	1	0	1
rcr14w	log	factor   0.9695872      1.00e-08	1	rcrw	1	0	1
rcr15d	log	factor   0.9916291      1.00e-08	1	rcrd	1	0	1
rcr15w	log	factor   0.9833322      1.00e-08	1	rcrw	1	0	1
rcgd	log	factor    1.100000      1.00e-08	1.1	rcgd	1	0	1
rcgw	log	factor    1.100000      1.00e-08	1.1	rcgw	1	0	1
tl	log	factor    2.274678      1.00e-08	5	tl	1	0	1
xw	log	factor   0.9737443      1.00e-08	2.1	xw	1	0	1
yw	log	factor   1.5820460E-03  1.00e-08	1	yw	1	0	1
x	log	factor    1.343894      1.00e-08	2.3	x	1	0	1
y	log	factor   5.2304667E-02  1.00e-08	1	y	1	0	1
tlr	log	factor   0.2046000      1.00e-08	10	tlr	1	0	1
tls	log	factor   0.6660000      1.00e-08	30	tls	1	0	1
beta	log	factor   0.5100000      2.00e-01	0.51	beta	1	0	1
* observation groups
q
swe
* observation data
 q1015                 356647.3       0.353553      q
 q1016                 500868.6       0.353553      q
 q1017                 796315.1       0.353553      q
 q1019                 621343.0       0.353553      q
 q1020                 653569.4       0.353553      q
 q1021                 551271.3       0.353553      q
 q1022                 506956.8       0.353553      q
 q1023                 503973.3       0.353553      q
 q1027                 358590.4       0.353553      q
 q1028                 362133.5       0.353553      q
 q1035                 643579.8       0.353553      q
 q1039                 585456.2       0.353553      q
 q1040                 507024.2       0.353553      q
 q1041                 696418.2       0.353553      q
 q1042                 636554.3       0.353553      q
 q1043                 587643.2       0.353553      q
 q1044                 494733.5       0.353553      q
 q1046                 491452.4       0.353553      q
 q1047                 526791.1       0.353553      q
 q1048                 577597.0       0.353553      q
 q1049                 605096.2       0.353553      q
 q1050                 720611.9       0.353553      q
 q1053                 723320.4       0.353553      q
 q1054                 725051.9       0.353553      q
 q1055                 634726.5       0.353553      q
 q1056                 575631.5       0.353553      q
 q1057                 612316.9       0.353553      q
 q1058                 732765.4       0.353553      q
 q1059                 789828.9       0.353553      q
 q1060                 821108.1       0.353553      q
 q1062                 681629.8       0.353553      q
 q1063                 716407.0       0.353553      q
 q1064                 776211.6       0.353553      q
 q1065                 794619.3       0.353553      q
 q1066                 762829.2       0.353553      q
 q1067                 762189.4       0.353553      q
 q1068                 828426.9       0.353553      q
 q1070                 822130.1       0.353553      q
 q1071                 705288.4       0.353553      q
 q1072                 648837.0       0.353553      q
 q1073                 778986.6       0.353553      q
 q1074                 780250.9       0.353553      q
 q1075                 780044.0       0.353553      q
 q1076                 740622.2       0.353553      q
 q1077                 744365.7       0.353553      q
 q1078                 793100.9       0.353553      q
 q1079                 849964.3       0.353553      q
 q1080                 796814.9       0.353553      q
 q1081                 739985.6       0.353553      q
 q1082                 717625.5       0.353553      q
 q1083                 731706.9       0.353553      q
 q1084                 725806.9       0.353553      q
 q1085                 630880.6       0.353553      q
 q1086                 592967.1       0.353553      q
 q1087                 519615.7       0.353553      q
 q1088                 472567.1       0.353553      q
 q1089                 474555.1       0.353553      q
 q1090                 523187.5       0.353553      q
 q1091                 638174.5       0.353553      q
 q1092                 673081.5       0.353553      q
 q1093                 605713.0       0.353553      q
 q1094                 615478.2       0.353553      q
 q1095                 595638.9       0.353553      q
 q1096                 584931.0       0.353553      q
 q1097                 522632.9       0.353553      q
 q1100                 513011.1       0.353553      q
 q1101                 433758.3       0.353553      q
 q1102                 429545.4       0.353553      q
 q1103                 470219.0       0.353553      q
 q1104                 483938.0       0.353553      q
 q1105                 431452.3       0.353553      q
 q1106                 435844.9       0.353553      q
 q1107                 432334.3       0.353553      q
 q1108                 478545.4       0.353553      q
 q1109                 413257.9       0.353553      q
 q1110                 436262.0       0.353553      q
 q1111                 450254.6       0.353553      q
 q1112                 446513.9       0.353553      q
 q1113                 428489.8       0.353553      q
 q1114                 385573.1       0.353553      q
 q1115                 326782.4       0.353553      q
 q1116                 474322.7       0.353553      q
 q1118                 433693.7       0.353553      q
 q1119                 340287.0       0.353553      q
 q1120                 337723.6       0.353553      q
 q1121                 333024.5       0.353553      q
 q1122                 297513.4       0.353553      q
 q1123                 355556.5       0.353553      q
 q1124                 373175.9       0.353553      q
 q1125                 398617.6       0.353553      q
 q1126                 368206.5       0.353553      q
 q1127                 310096.3       0.353553      q
 q1130                 350312.5       0.353553      q
 q1131                 331433.3       0.353553      q
 q1133                 312772.7       0.353553      q
 q1134                 300469.8       0.353553      q
 q1135                 343215.6       0.353553      q
 q1136                 307213.2       0.353553      q
 q1137                 275869.5       0.353553      q
 q1138                 330746.3       0.353553      q
 q1139                 304120.6       0.353553      q
 q1140                 300779.4       0.353553      q
 q1141                 298150.6       0.353553      q
 q1142                 282298.0       0.353553      q
 q1143                 276766.6       0.353553      q
 q1144                 252205.8       0.353553      q
 q1145                 248953.4       0.353553      q
 q1146                 259909.4       0.353553      q
 q1147                 286215.1       0.353553      q
 q1148                 246463.8       0.353553      q
 q1151                 271608.4       0.353553      q
 q1152                 239085.6       0.353553      q
 q1153                 261882.7       0.353553      q
 q1154                 285149.3       0.353553      q
 q1155                 277072.4       0.353553      q
 q1156                 289839.0       0.353553      q
 q1158                 263206.4       0.353553      q
 q1159                 248783.2       0.353553      q
 q1160                 246437.7       0.353553      q
 q1161                 275298.9       0.353553      q
 q1162                 259356.9       0.353553      q
 q1165                 264085.0       0.353553      q
 q1166                 270895.9       0.353553      q
 q1167                 254208.2       0.353553      q
 q1168                 244744.5       0.353553      q
 q1169                 183369.9       0.353553      q
 q1170                 268575.9       0.353553      q
 q1172                 170331.2       0.353553      q
 q1173                 180691.9       0.353553      q
 q1174                 173666.4       0.353553      q
 q1175                 179137.6       0.353553      q
 q1176                 153459.5       0.353553      q
 q1177                 158682.8       0.353553      q
 q1178                 158891.0       0.353553      q
 q1180                 125367.1       0.353553      q
 q1182                 149789.4       0.353553      q
 q1183                 149503.0       0.353553      q
 q1184                 152062.8       0.353553      q
 q1186                 152510.7       0.353553      q
 q1187                 134572.0       0.353553      q
 q1188                 139743.1       0.353553      q
 q1189                 131364.3       0.353553      q
 q1190                 141210.9       0.353553      q
 q1191                 132150.4       0.353553      q
 q1192                 130099.4       0.353553      q
 q1193                 127967.9       0.353553      q
 q1194                 137739.2       0.353553      q
 q1195                 134015.6       0.353553      q
 q1196                 133003.5       0.353553      q
 q1202                 137146.8       0.353553      q
 q1230                 145310.8       0.353553      q
 q1231                 114734.6       0.353553      q
 q1232                 117027.5       0.353553      q
 q1235                 120163.8       0.353553      q
 q1236                 122420.2       0.353553      q
 q1239                 150314.3       0.353553      q
 q1240                 142488.8       0.353553      q
 q1241                 115690.4       0.353553      q
 q1242                 127251.6       0.353553      q
 q1243                 129056.6       0.353553      q
 q1244                 131957.6       0.353553      q
 q1245                 129002.2       0.353553      q
 q1246                 114373.9       0.353553      q
 q1247                 120381.2       0.353553      q
 q1249                 132142.7       0.353553      q
 q1250                 125758.4       0.353553      q
 q1252                 263196.6       0.353553      q
 q1253                 202018.6       0.353553      q
 q1254                 140456.7       0.353553      q
 q1255                 131971.9       0.353553      q
 q1256                 160772.0       0.353553      q
 q1257                 234132.1       0.353553      q
 q1258                 255961.4       0.353553      q
 q1259                 260968.8       0.353553      q
 q1260                 290641.3       0.353553      q
 q1263                 234708.3       0.353553      q
 q1264                 204597.7       0.353553      q
 q1265                 228887.0       0.353553      q
 q1275                 293959.1       0.353553      q
 q1277                 238122.0       0.353553      q
 q1278                 223279.7       0.353553      q
 q1279                 225278.3       0.353553      q
 q1280                 219971.1       0.353553      q
 q1281                 212536.6       0.353553      q
 q1282                 248681.4       0.353553      q
 q1286                 248464.5       0.353553      q
 q1287                 219670.3       0.353553      q
 q1288                 216614.1       0.353553      q
 q1289                 221808.3       0.353553      q
 q1291                 258576.5       0.353553      q
 q1292                 238854.9       0.353553      q
 q1294                 196854.2       0.353553      q
 q1295                 206113.1       0.353553      q
 q1300                 224664.8       0.353553      q
 q1302                 208354.0       0.353553      q
 q1303                 218303.8       0.353553      q
 q1305                 211104.7       0.353553      q
 q1306                 180954.3       0.353553      q
 q1307                 177856.4       0.353553      q
 q1376                 238178.1       0.353553      q
 q1377                 251036.8       0.353553      q
 q1378                 250173.7       0.353553      q
 q1379                 229712.4       0.353553      q
 q1380                 213092.2       0.353553      q
 q1381                 223993.0       0.353553      q
 q1382                 260510.4       0.353553      q
 q1383                 238814.8       0.353553      q
 q1386                 273144.3       0.353553      q
 q1387                 259914.1       0.353553      q
 q1389                 237225.1       0.353553      q
 q1390                 230653.5       0.353553      q
 q1391                 260737.1       0.353553      q
 q1392                 267238.4       0.353553      q
 q1393                 261470.1       0.353553      q
 q1396                 257738.6       0.353553      q
 q1397                 255052.7       0.353553      q
 q1398                 243451.0       0.353553      q
 q1400                 249022.5       0.353553      q
 q1434                 223115.6       0.353553      q
 q1435                 222830.6       0.353553      q
 q1436                 225838.6       0.353553      q
 q1438                 217990.1       0.353553      q
 q1439                 210883.2       0.353553      q
 q1440                 206014.5       0.353553      q
 q1441                 190727.6       0.353553      q
 q1442                 191832.4       0.353553      q
 q1443                 195745.3       0.353553      q
 q1445                 202830.6       0.353553      q
 q1446                 201968.5       0.353553      q
 q1447                 179679.9       0.353553      q
 q1448                 196566.3       0.353553      q
 q1449                 200327.0       0.353553      q
 q1450                 196087.7       0.353553      q
 q1452                 190340.1       0.353553      q
 q1453                 175810.6       0.353553      q
 q1456                 173335.3       0.353553      q
 q1458                 170437.0       0.353553      q
 q1524                 100608.2       0.353553      q
 q1525                 97945.76       0.353553      q
 q1526                 94580.76       0.353553      q
 q1527                 90562.94       0.353553      q
 q1529                 89499.24       0.353553      q
 q1530                 95246.48       0.353553      q
 q1531                 90169.31       0.353553      q
 q1533                 89083.69       0.353553      q
 q1535                 87543.37       0.353553      q
 q1538                 89318.61       0.353553      q
 q1539                 87901.30       0.353553      q
 q1541                 86463.39       0.353553      q
 q1542                 90961.63       0.353553      q
 q1543                 88070.96       0.353553      q
 q1544                 92732.17       0.353553      q
 q1547                 92736.96       0.353553      q
 q1548                 87592.11       0.353553      q
 q1549                 101533.6       0.353553      q
 q1582                 100681.1       0.353553      q
 q1583                 143084.3       0.353553      q
 q1585                 132938.3       0.353553      q
 q1586                 92852.48       0.353553      q
 q1587                 126699.5       0.353553      q
 q1588                 105600.3       0.353553      q
 q1591                 115087.4       0.353553      q
 q1592                 113003.4       0.353553      q
 q1593                 103434.9       0.353553      q
 q1594                 101078.0       0.353553      q
 q1595                 99214.31       0.353553      q
 q1596                 97627.43       0.353553      q
 q1598                 96527.72       0.353553      q
 q1599                 102554.8       0.353553      q
 q1600                 95771.15       0.353553      q
 q1601                 93273.93       0.353553      q
 q1602                 101234.4       0.353553      q
 q1603                 102028.2       0.353553      q
 q1604                 96978.07       0.353553      q
 q1606                 93434.35       0.353553      q
 q1607                 100077.9       0.353553      q
 q1612                 111030.9       0.353553      q
 q1613                 109848.3       0.353553      q
 q1624                 173993.7       0.353553      q
 q1625                 144983.9       0.353553      q
 q1626                 134124.4       0.353553      q
 q1627                 143816.6       0.353553      q
 q1628                 168190.9       0.353553      q
 q1630                 179399.1       0.353553      q
 q1631                 168695.1       0.353553      q
 q1632                 185115.2       0.353553      q
 q1634                 203124.5       0.353553      q
 q1635                 202323.3       0.353553      q
 q1636                 182099.7       0.353553      q
 q1637                 174522.7       0.353553      q
 q1638                 182635.5       0.353553      q
 q1639                 174513.7       0.353553      q
 q1640                 161958.1       0.353553      q
 q1641                 158423.1       0.353553      q
 q1642                 175866.9       0.353553      q
 q1643                 156852.1       0.353553      q
 q1644                 140589.2       0.353553      q
 q1645                 176767.9       0.353553      q
 q1646                 176006.2       0.353553      q
 q1647                 188145.4       0.353553      q
 q1648                 178668.5       0.353553      q
 q1649                 168054.6       0.353553      q
 q1650                 166423.7       0.353553      q
 q1651                 147316.2       0.353553      q
 q1652                 146968.6       0.353553      q
 q1653                 147200.4       0.353553      q
 q1655                 153843.0       0.353553      q
 q1657                 234144.3       0.353553      q
 q1658                 180407.4       0.353553      q
 q1659                 155474.8       0.353553      q
 q1660                 161438.4       0.353553      q
 q1661                 163708.5       0.353553      q
 q1662                 230917.0       0.353553      q
 q1663                 196281.5       0.353553      q
 q1664                 224523.9       0.353553      q
 q1667                 214575.2       0.353553      q
 q1668                 218658.4       0.353553      q
 q1669                 232800.6       0.353553      q
 q1671                 219069.0       0.353553      q
 q1672                 201209.9       0.353553      q
 q1673                 191060.9       0.353553      q
 q1674                 180126.9       0.353553      q
 q1675                 183252.3       0.353553      q
 q1676                 191698.4       0.353553      q
 q1677                 206600.3       0.353553      q
 q1678                 213548.7       0.353553      q
 q1679                 183905.1       0.353553      q
 q1680                 178583.9       0.353553      q
 q1681                 159616.8       0.353553      q
 q1682                 175284.9       0.353553      q
 q1683                 187952.5       0.353553      q
 q1684                 185641.4       0.353553      q
 q1685                 194042.1       0.353553      q
 q1686                 189895.3       0.353553      q
 q1687                 170588.9       0.353553      q
 q1688                 189925.6       0.353553      q
 q1689                 188052.7       0.353553      q
 q1690                 171401.7       0.353553      q
 q1691                 159107.0       0.353553      q
 q1692                 144155.6       0.353553      q
 q1694                 153316.7       0.353553      q
 q1695                 153138.2       0.353553      q
 q1696                 152437.7       0.353553      q
 q1697                 147090.2       0.353553      q
 q1698                 144147.6       0.353553      q
 q1699                 152180.7       0.353553      q
 q1700                 149450.1       0.353553      q
 q1701                 151181.0       0.353553      q
 q1704                 213373.0       0.353553      q
 q1705                 214412.9       0.353553      q
 q1706                 217960.2       0.353553      q
 q1707                 195193.7       0.353553      q
 q1708                 198069.6       0.353553      q
 q1713                 287536.0       0.353553      q
 q1715                 220465.8       0.353553      q
 q1716                 237584.7       0.353553      q
 q1718                 248756.1       0.353553      q
 q1719                 245231.2       0.353553      q
 q1720                 230475.4       0.353553      q
 q1722                 244957.9       0.353553      q
 q1723                 299799.3       0.353553      q
 q1724                 269767.9       0.353553      q
 q1725                 246316.8       0.353553      q
 q1726                 212999.4       0.353553      q
 q1727                 202096.6       0.353553      q
 q1728                 200977.6       0.353553      q
 q1729                 204196.9       0.353553      q
 q1730                 223926.9       0.353553      q
 q1732                 240076.2       0.353553      q
 q1733                 226315.7       0.353553      q
 q1734                 229500.8       0.353553      q
 q1735                 213199.4       0.353553      q
 q1736                 215995.0       0.353553      q
 q1737                 250416.1       0.353553      q
 q1739                 267836.4       0.353553      q
 q1740                 283540.8       0.353553      q
 q1742                 320118.4       0.353553      q
 q1743                 284452.6       0.353553      q
 q1744                 291787.6       0.353553      q
 q1745                 267314.9       0.353553      q
 q1746                 247664.9       0.353553      q
 q1747                 225727.3       0.353553      q
 q1748                 211443.2       0.353553      q
 q1749                 211809.2       0.353553      q
 q1750                 193849.3       0.353553      q
 q1751                 249948.2       0.353553      q
 q1753                 191364.3       0.353553      q
 q1755                 201078.5       0.353553      q
 q1756                 223548.3       0.353553      q
 q1757                 254508.6       0.353553      q
 q1758                 227659.4       0.353553      q
 q1759                 228159.7       0.353553      q
 q1760                 235861.4       0.353553      q
 q1762                 271760.8       0.353553      q
 q1763                 274917.6       0.353553      q
 q1764                 245821.7       0.353553      q
 q1765                 257977.6       0.353553      q
 q1766                 271913.3       0.353553      q
 q1767                 279699.9       0.353553      q
 q1768                 245584.4       0.353553      q
 q1769                 258208.4       0.353553      q
 q1770                 255946.0       0.353553      q
 q1771                 206156.3       0.353553      q
 q1772                 219491.7       0.353553      q
 q1774                 243886.9       0.353553      q
 q1775                 275478.6       0.353553      q
 q1776                 273572.1       0.353553      q
 q1777                 290526.4       0.353553      q
 q1791                 283856.6       0.353553      q
 q1792                 295831.4       0.353553      q
 q1793                 348005.2       0.353553      q
 q1796                 350962.7       0.353553      q
 q1797                 364172.0       0.353553      q
 q1800                 319915.7       0.353553      q
 q1801                 292084.9       0.353553      q
 q1802                 281137.0       0.353553      q
 q1803                 277999.0       0.353553      q
 q1804                 314643.9       0.353553      q
 q1805                 309844.3       0.353553      q
 q1806                 323921.1       0.353553      q
 q1807                 301442.5       0.353553      q
 q1809                 266604.2       0.353553      q
 q1810                 266786.2       0.353553      q
 q1811                 267159.1       0.353553      q
 q1812                 245414.6       0.353553      q
 q1813                 234085.6       0.353553      q
 q1814                 226034.7       0.353553      q
 q1815                 231652.0       0.353553      q
 q1816                 216984.7       0.353553      q
 q1817                 213280.8       0.353553      q
 q1818                 200314.6       0.353553      q
 q1819                 206755.8       0.353553      q
 q1820                 217125.6       0.353553      q
 q1821                 195543.5       0.353553      q
 q1822                 195833.5       0.353553      q
 q1823                 192920.8       0.353553      q
 q1824                 183227.3       0.353553      q
 q1832                 147382.4       0.353553      q
 q1834                 149455.9       0.353553      q
 q1835                 149440.7       0.353553      q
 q1836                 147630.7       0.353553      q
 q1837                 134233.2       0.353553      q
 q1838                 135715.8       0.353553      q
 q1839                 133969.9       0.353553      q
 q1840                 125406.2       0.353553      q
 q1841                 127809.8       0.353553      q
 q1842                 137571.5       0.353553      q