pcf
* control data
restart  estimation
90  9013    18     0     2
2    2 single point   1   0   0
10.0  -3  0.3  0.03  10  lamforgive derforgive
10.0  10.0  0.001
0.1  noaui
0   0.001  4  4  0.005  4
1  1  1  PARSAVEITN
* singular value decomposition
1
90 5E-06
1
* parameter groups
ddsd         relative 0.025  0.0  switch  2.0 parabolic 1.0e-4 0.5 smaller
ddsw         relative 0.025  0.0  switch  2.0 parabolic 1.0e-4 0.5 smaller
ddgd         relative 0.025  0.0  switch  2.0 parabolic 1.0e-4 0.5 smaller
ddgw         relative 0.025  0.0  switch  2.0 parabolic 1.0e-4 0.5 smaller
rcsd         relative 0.025  0.0  switch  2.0 parabolic 1.0e-4 0.5 smaller
rcsw         relative 0.025  0.0  switch  2.0 parabolic 1.0e-4 0.5 smaller
rcrd         relative 0.025  0.0  switch  2.0 parabolic 1.0e-4 0.5 smaller
rcrw         relative 0.025  0.0  switch  2.0 parabolic 1.0e-4 0.5 smaller
rcgd         relative 0.025  0.0  switch  2.0 parabolic 1.0e-4 0.5 smaller
rcgw         relative 0.025  0.0  switch  2.0 parabolic 1.0e-4 0.5 smaller
tl           relative 0.025  0.0  switch  2.0 parabolic 1.0e-4 0.5 smaller
xw           relative 0.25  0.0  switch  2.0 parabolic 1.0e-4 0.5 smaller
yw           relative 0.25  0.0  switch  2.0 parabolic 1.0e-4 0.5 smaller
x            relative 0.25  0.0  switch  2.0 parabolic 1.0e-4 0.5 smaller
y            relative 0.25  0.0  switch  2.0 parabolic 1.0e-4 0.5 smaller
tlr			 relative 0.5  0.0  switch  2.0 parabolic 1.0e-4 0.5 smaller
tls			 relative 0.5  0.0  switch  2.0 parabolic 1.0e-4 0.5 smaller
beta			 relative 0.025  0.0  switch  2.0 parabolic 1.0e-4 0.5 smaller
* parameter data
ddsd	log	factor	0.4344544	1.00E-08	1.1	ddsd	1	0	1
ddsw	log	factor	0.5316523	1.00E-08	1.1	ddsw	1	0	1
ddgd	log	factor	0.654588	1.00E-08	1.1	ddgd	1	0	1
ddgw	log	factor	0.9572673	1.00E-08	1.1	ddgw	1	0	1
rcs1d	log	factor	0.4208719	1.00E-08	1	rcsd	1.00E+00	0	1
rcs1w	log	factor	0.659576	1.00E-08	1	rcsw	1.00E+00	0	1
rcs2d	log	factor	0.4208719	1.00E-08	1	rcsd	1.00E+00	0	1
rcs2w	log	factor	0.659576	1.00E-08	1	rcsw	1.00E+00	0	1
rcs3d	log	factor	0.4208719	1.00E-08	1	rcsd	1.00E+00	0	1
rcs3w	log	factor	0.659576	1.00E-08	1	rcsw	1.00E+00	0	1
rcs4d	log	factor	0.4208719	1.00E-08	1	rcsd	1.00E+00	0	1
rcs4w	log	factor	0.659576	1.00E-08	1	rcsw	1.00E+00	0	1
rcs5d	log	factor	0.4208719	1.00E-08	1	rcsd	1.00E+00	0	1
rcs5w	log	factor	0.659576	1.00E-08	1	rcsw	1.00E+00	0	1
rcs6d	log	factor	0.4208719	1.00E-08	1	rcsd	1.00E+00	0	1
rcs6w	log	factor	0.659576	1.00E-08	1	rcsw	1.00E+00	0	1
rcs7d	log	factor	0.4208719	1.00E-08	1	rcsd	1.00E+00	0	1
rcs7w	log	factor	0.659576	1.00E-08	1	rcsw	1.00E+00	0	1
rcs8d	log	factor	0.4208719	1.00E-08	1	rcsd	1.00E+00	0	1
rcs8w	log	factor	0.659576	1.00E-08	1	rcsw	1.00E+00	0	1
rcs9d	log	factor	0.4208719	1.00E-08	1	rcsd	1.00E+00	0	1
rcs9w	log	factor	0.659576	1.00E-08	1	rcsw	1.00E+00	0	1
rcs10d	log	factor	0.4208719	1.00E-08	1	rcsd	1.00E+00	0	1
rcs10w	log	factor	0.659576	1.00E-08	1	rcsw	1.00E+00	0	1
rcs11d	log	factor	0.4208719	1.00E-08	1	rcsd	1.00E+00	0	1
rcs11w	log	factor	0.659576	1.00E-08	1	rcsw	1.00E+00	0	1
rcs12d	log	factor	0.4208719	1.00E-08	1	rcsd	1.00E+00	0	1
rcs12w	log	factor	0.659576	1.00E-08	1	rcsw	1.00E+00	0	1
rcs13d	log	factor	0.4208719	1.00E-08	1	rcsd	1.00E+00	0	1
rcs13w	log	factor	0.659576	1.00E-08	1	rcsw	1.00E+00	0	1
rcs14d	log	factor	0.4208719	1.00E-08	1	rcsd	1.00E+00	0	1
rcs14w	log	factor	0.659576	1.00E-08	1	rcsw	1.00E+00	0	1
rcs15d	log	factor	0.4208719	1.00E-08	1	rcsd	1.00E+00	0	1
rcs15w	log	factor	0.659576	1.00E-08	1	rcsw	1.00E+00	0	1
rcs16d	log	factor	0.4208719	1.00E-08	1	rcsd	1.00E+00	0	1
rcs16w	log	factor	0.659576	1.00E-08	1	rcsw	1.00E+00	0	1
rcs17d	log	factor	0.4208719	1.00E-08	1	rcsd	1.00E+00	0	1
rcs17w	log	factor	0.659576	1.00E-08	1	rcsw	1.00E+00	0	1
rcs18d	log	factor	0.4208719	1.00E-08	1	rcsd	1.00E+00	0	1
rcs18w	log	factor	0.659576	1.00E-08	1	rcsw	1.00E+00	0	1
rcs19d	log	factor	0.4208719	1.00E-08	1	rcsd	1.00E+00	0	1
rcs19w	log	factor	0.659576	1.00E-08	1	rcsw	1.00E+00	0	1
rcr1d	log	factor	2.20E-01	1.00E-08	1	rcrd	1.00E+00	0	1
rcr1w	log	factor	7.82E-02	1.00E-08	1	rcrw	1.00E+00	0	1
rcr2d	log	factor	2.20E-01	1.00E-08	1	rcrd	1.00E+00	0	1
rcr2w	log	factor	7.82E-02	1.00E-08	1	rcrw	1.00E+00	0	1
rcr3d	log	factor	2.20E-01	1.00E-08	1	rcrd	1.00E+00	0	1
rcr3w	log	factor	7.82E-02	1.00E-08	1	rcrw	1.00E+00	0	1
rcr4d	log	factor	2.20E-01	1.00E-08	1	rcrd	1.00E+00	0	1
rcr4w	log	factor	7.82E-02	1.00E-08	1	rcrw	1.00E+00	0	1
rcr5d	log	factor	2.20E-01	1.00E-08	1	rcrd	1.00E+00	0	1
rcr5w	log	factor	7.82E-02	1.00E-08	1	rcrw	1.00E+00	0	1
rcr6d	log	factor	2.20E-01	1.00E-08	1	rcrd	1.00E+00	0	1
rcr6w	log	factor	7.82E-02	1.00E-08	1	rcrw	1.00E+00	0	1
rcr7d	log	factor	2.20E-01	1.00E-08	1	rcrd	1.00E+00	0	1
rcr7w	log	factor	7.82E-02	1.00E-08	1	rcrw	1.00E+00	0	1
rcr8d	log	factor	2.20E-01	1.00E-08	1	rcrd	1.00E+00	0	1
rcr8w	log	factor	7.82E-02	1.00E-08	1	rcrw	1.00E+00	0	1
rcr9d	log	factor	2.20E-01	1.00E-08	1	rcrd	1.00E+00	0	1
rcr9w	log	factor	7.82E-02	1.00E-08	1	rcrw	1.00E+00	0	1
rcr10d	log	factor	2.20E-01	1.00E-08	1	rcrd	1.00E+00	0	1
rcr10w	log	factor	7.82E-02	1.00E-08	1	rcrw	1.00E+00	0	1
rcr11d	log	factor	2.20E-01	1.00E-08	1	rcrd	1.00E+00	0	1
rcr11w	log	factor	7.82E-02	1.00E-08	1	rcrw	1.00E+00	0	1
rcr12d	log	factor	2.20E-01	1.00E-08	1	rcrd	1.00E+00	0	1
rcr12w	log	factor	7.82E-02	1.00E-08	1	rcrw	1.00E+00	0	1
rcr13d	log	factor	2.20E-01	1.00E-08	1	rcrd	1.00E+00	0	1
rcr13w	log	factor	7.82E-02	1.00E-08	1	rcrw	1.00E+00	0	1
rcr14d	log	factor	2.20E-01	1.00E-08	1	rcrd	1.00E+00	0	1
rcr14w	log	factor	7.82E-02	1.00E-08	1	rcrw	1.00E+00	0	1
rcr15d	log	factor	2.20E-01	1.00E-08	1	rcrd	1.00E+00	0	1
rcr15w	log	factor	7.82E-02	1.00E-08	1	rcrw	1.00E+00	0	1
rcr16d	log	factor	2.20E-01	1.00E-08	1	rcrd	1.00E+00	0	1
rcr16w	log	factor	7.82E-02	1.00E-08	1	rcrw	1.00E+00	0	1
rcr17d	log	factor	2.20E-01	1.00E-08	1	rcrd	1.00E+00	0	1
rcr17w	log	factor	7.82E-02	1.00E-08	1	rcrw	1.00E+00	0	1
rcr18d	log	factor	2.20E-01	1.00E-08	1	rcrd	1.00E+00	0	1
rcr18w	log	factor	7.82E-02	1.00E-08	1	rcrw	1.00E+00	0	1
rcr19d	log	factor	2.20E-01	1.00E-08	1	rcrd	1.00E+00	0	1
rcr19w	log	factor	7.82E-02	1.00E-08	1	rcrw	1.00E+00	0	1
rcgd	log	factor	0.2359209	1.00E-08	1.59	rcgd	1	0	1
rcgw	log	factor	0.5959547	1.00E-08	1.59	rcgw	1	0	1
tl	log	factor	7.28E-04	1.00E-08	5	tl	1	0	1
xw	log	factor	1	1.00E-08	1.3	xw	1	0	1
yw	log	factor	8.00E-01	1.00E-08	1	yw	1	0	1
x	log	factor	1	1.00E-08	1.3	x	1	0	1
y	log	factor	8.00E-01	1.00E-08	1	y	1	0	1
tlr	log	factor	2	1.00E-08	10	tlr	1	0	1
tls	log	factor	1	1.00E-08	30	tls	1	0	1
beta	log	factor	0.41	2.00E-01	5.10E-01	beta	1	0	1
* observation groups
q
swe
* observation data
q2039	61800.0000000	0.5	q
q2040	71700.0000000	0.5	q
q2041	112500.0000000	0.5	q
q2042	136600.0000000	0.5	q
q2043	112100.0000000	0.5	q
q2044	107600.0000000	0.5	q
q2045	96400.0000000	0.5	q
q2046	100200.0000000	0.5	q
q2047	103300.0000000	0.5	q
q2048	95000.0000000	0.5	q
q2049	96900.0000000	0.5	q
q2050	92500.0000000	0.5	q
q2051	93900.0000000	0.5	q
q2052	106100.0000000	0.5	q
q2053	118800.0000000	0.5	q
q2054	92300.0000000	0.5	q
q2056	109100.0000000	0.5	q
q2057	100900.0000000	0.5	q
q2058	97000.0000000	0.5	q
q2059	95100.0000000	0.5	q
q2060	88800.0000000	0.5	q
q2061	84300.0000000	0.5	q
q2062	87100.0000000	0.5	q
q2063	80400.0000000	0.5	q
q2064	79000.0000000	0.5	q
q2065	133500.0000000	0.5	q
q2068	152700.0000000	0.5	q
q2069	124700.0000000	0.5	q
q2070	108700.0000000	0.5	q
q2071	99300.0000000	0.5	q
q2072	92700.0000000	0.5	q
q2073	93400.0000000	0.5	q
q2074	85200.0000000	0.5	q
q2075	92500.0000000	0.5	q
q2076	97400.0000000	0.5	q
q2077	100600.0000000	0.5	q
q2078	103600.0000000	0.5	q
q2079	109900.0000000	0.5	q
q2080	98800.0000000	0.5	q
q2081	89000.0000000	0.5	q
q2082	84300.0000000	0.5	q
q2083	81400.0000000	0.5	q
q2084	80700.0000000	0.5	q
q2085	77930.0000000	0.5	q
q2086	77500.0000000	0.5	q
q2087	79500.0000000	0.5	q
q2088	80700.0000000	0.5	q
q2089	81500.0000000	0.5	q
q2090	83600.0000000	0.5	q
q2091	87300.0000000	0.5	q
q2092	86200.0000000	0.5	q
q2093	80600.0000000	0.5	q
q2095	78070.0000000	0.5	q
q2096	80700.0000000	0.5	q
q2097	83900.0000000	0.5	q
q2098	83900.0000000	0.5	q
q2103	74210.0000000	0.5	q
q2104	79480.0000000	0.5	q
q2105	73470.0000000	0.5	q
q2107	77270.0000000	0.5	q
q2108	81100.0000000	0.5	q
q2109	90100.0000000	0.5	q
q2110	101800.0000000	0.5	q
q2111	113200.0000000	0.5	q
q2112	113200.0000000	0.5	q
q2113	107400.0000000	0.5	q
q2114	109500.0000000	0.5	q
q2115	116900.0000000	0.5	q
q2116	114200.0000000	0.5	q
q2117	114900.0000000	0.5	q
q2118	123600.0000000	0.5	q
q2119	142800.0000000	0.5	q
q2120	162400.0000000	0.5	q
q2123	167100.0000000	0.5	q
q2125	148900.0000000	0.5	q
q2126	137700.0000000	0.5	q
q2127	134800.0000000	0.5	q
q2128	130000.0000000	0.5	q
q2129	126800.0000000	0.5	q
q2130	127400.0000000	0.5	q
q2131	136800.0000000	0.5	q
q2134	200900.0000000	0.5	q
q2135	200700.0000000	0.5	q
q2136	207500.0000000	0.5	q
q2137	220500.0000000	0.5	q
q2138	238400.0000000	0.5	q
q2139	246200.0000000	0.5	q
q2140	253000.0000000	0.5	q
q2141	269000.0000000	0.5	q
q2142	293300.0000000	0.5	q
q2143	315000.0000000	0.5	q
q2144	323800.0000000	0.5	q
q2145	310400.0000000	0.5	q
q2146	329100.0000000	0.5	q
q2147	318200.0000000	0.5	q
q2148	298300.0000000	0.5	q
q2149	292000.0000000	0.5	q
q2150	312500.0000000	0.5	q
q2151	337700.0000000	0.5	q
q2152	350700.0000000	0.5	q
q2155	327700.0000000	0.5	q
q2156	322100.0000000	0.5	q
q2157	357400.0000000	0.5	q
q2158	356500.0000000	0.5	q
q2159	355500.0000000	0.5	q
q2161	352700.0000000	0.5	q
q2162	384700.0000000	0.5	q
q2163	363300.0000000	0.5	q
q2164	352200.0000000	0.5	q
q2165	279000.0000000	0.5	q
q2166	224300.0000000	0.5	q
q2167	211700.0000000	0.5	q
q2168	213700.0000000	0.5	q
q2171	237500.0000000	0.5	q
q2172	273400.0000000	0.5	q
q2173	294300.0000000	0.5	q
q2174	309500.0000000	0.5	q
q2175	311200.0000000	0.5	q
q2176	314600.0000000	0.5	q
q2177	343400.0000000	0.5	q
q2178	348400.0000000	0.5	q
q2179	348300.0000000	0.5	q
q2180	369900.0000000	0.5	q
q2181	345700.0000000	0.5	q
q2182	351400.0000000	0.5	q
q2183	364100.0000000	0.5	q
q2184	405400.0000000	0.5	q
q2185	430000.0000000	0.5	q
q2189	416300.0000000	0.5	q
q2190	376400.0000000	0.5	q
q2191	366200.0000000	0.5	q
q2192	353300.0000000	0.5	q
q2193	343500.0000000	0.5	q
q2194	330300.0000000	0.5	q
q2195	320200.0000000	0.5	q
q2196	331000.0000000	0.5	q
q2197	334300.0000000	0.5	q
q2201	339500.0000000	0.5	q
q2202	325400.0000000	0.5	q
q2203	319500.0000000	0.5	q
q2204	310400.0000000	0.5	q
q2205	308200.0000000	0.5	q
q2206	318300.0000000	0.5	q
q2207	306100.0000000	0.5	q
q2208	296000.0000000	0.5	q
q2209	304800.0000000	0.5	q
q2210	319300.0000000	0.5	q
q2211	332300.0000000	0.5	q
q2212	311100.0000000	0.5	q
q2213	302400.0000000	0.5	q
q2214	302100.0000000	0.5	q
q2215	288100.0000000	0.5	q
q2216	275200.0000000	0.5	q
q2217	274000.0000000	0.5	q
q2218	280000.0000000	0.5	q
q2219	288700.0000000	0.5	q
q2220	292700.0000000	0.5	q
q2221	287800.0000000	0.5	q
q2222	286900.0000000	0.5	q
q2223	297900.0000000	0.5	q
q2227	257400.0000000	0.5	q
q2228	239500.0000000	0.5	q
q2229	232400.0000000	0.5	q
q2230	236100.0000000	0.5	q
q2231	224300.0000000	0.5	q
q2232	213200.0000000	0.5	q
q2233	220300.0000000	0.5	q
q2234	246200.0000000	0.5	q
q2235	256200.0000000	0.5	q
q2236	253000.0000000	0.5	q
q2237	250100.0000000	0.5	q
q2238	225200.0000000	0.5	q
q2239	209100.0000000	0.5	q
q2240	202200.0000000	0.5	q
q2241	213500.0000000	0.5	q
q2242	225400.0000000	0.5	q
q2243	219300.0000000	0.5	q
q2244	205400.0000000	0.5	q
q2245	189500.0000000	0.5	q
q2246	160900.0000000	0.5	q
q2248	158500.0000000	0.5	q
q2249	154900.0000000	0.5	q
q2254	106400.0000000	0.5	q
q2255	104100.0000000	0.5	q
q2256	107100.0000000	0.5	q
q2257	110200.0000000	0.5	q
q2258	105300.0000000	0.5	q
q2259	100600.0000000	0.5	q
q2260	101000.0000000	0.5	q
q2261	102700.0000000	0.5	q
q2262	104400.0000000	0.5	q
q2263	105300.0000000	0.5	q
q2264	106500.0000000	0.5	q
q2265	99300.0000000	0.5	q
q2266	98800.0000000	0.5	q
q2267	92800.0000000	0.5	q
q2268	88300.0000000	0.5	q
q2269	86900.0000000	0.5	q
q2270	92700.0000000	0.5	q
q2271	93100.0000000	0.5	q
q2272	95600.0000000	0.5	q
q2273	92500.0000000	0.5	q
q2274	88800.0000000	0.5	q
q2275	88900.0000000	0.5	q
q2276	88000.0000000	0.5	q
q2277	83200.0000000	0.5	q
q2278	81300.0000000	0.5	q
q2279	80020.0000000	0.5	q
q2283	71060.0000000	0.5	q
q2284	71930.0000000	0.5	q
q2285	72220.0000000	0.5	q
q2286	73320.0000000	0.5	q
q2287	72280.0000000	0.5	q
q2288	69810.0000000	0.5	q
q2289	68470.0000000	0.5	q
q2290	64850.0000000	0.5	q
q2291	63950.0000000	0.5	q
q2292	62370.0000000	0.5	q
q2293	60940.0000000	0.5	q
q2294	58000.0000000	0.5	q
q2295	57120.0000000	0.5	q
q2296	54160.0000000	0.5	q
q2297	51590.0000000	0.5	q
q2299	49580.0000000	0.5	q
q2300	48390.0000000	0.5	q
q2301	47530.0000000	0.5	q
q2303	63580.0000000	0.5	q
q2304	57560.0000000	0.5	q
q2305	55800.0000000	0.5	q
q2306	54700.0000000	0.5	q
q2307	52100.0000000	0.5	q
q2310	49280.0000000	0.5	q
q2311	48360.0000000	0.5	q
q2312	47200.0000000	0.5	q
q2313	46610.0000000	0.5	q
q2314	46260.0000000	0.5	q
q2315	45300.0000000	0.5	q
q2316	45490.0000000	0.5	q
q2317	44400.0000000	0.5	q
q2318	44000.0000000	0.5	q
q2319	42250.0000000	0.5	q
q2320	41060.0000000	0.5	q
q2321	42130.0000000	0.5	q
q2322	38820.0000000	0.5	q
q2323	39850.0000000	0.5	q
q2325	38860.0000000	0.5	q
q2327	38460.0000000	0.5	q
q2328	41920.0000000	0.5	q
q2329	39740.0000000	0.5	q
q2330	37650.0000000	0.5	q
q2331	36140.0000000	0.5	q
q2332	35130.0000000	0.5	q
q2333	35260.0000000	0.5	q
q2334	35720.0000000	0.5	q
q2335	35110.0000000	0.5	q
q2336	54770.0000000	0.5	q
q2339	69660.0000000	0.5	q
q2340	50530.0000000	0.5	q
q2341	46460.0000000	0.5	q
q2342	44500.0000000	0.5	q
q2343	42160.0000000	0.5	q
q2344	40290.0000000	0.5	q
q2345	40200.0000000	0.5	q
q2346	38710.0000000	0.5	q
q2347	37600.0000000	0.5	q
q2348	44070.0000000	0.5	q
q2349	99600.0000000	0.5	q
q2350	82600.0000000	0.5	q
q2352	78500.0000000	0.5	q
q2353	57440.0000000	0.5	q
q2354	52610.0000000	0.5	q
q2355	54840.0000000	0.5	q
q2357	83100.0000000	0.5	q
q2358	69000.0000000	0.5	q
q2359	63560.0000000	0.5	q
q2360	58880.0000000	0.5	q
q2361	55500.0000000	0.5	q
q2362	55350.0000000	0.5	q
q2363	52560.0000000	0.5	q
q2364	50070.0000000	0.5	q
q2365	49470.0000000	0.5	q
q2366	49640.0000000	0.5	q
q2367	50690.0000000	0.5	q
q2368	49640.0000000	0.5	q
q2370	49010.0000000	0.5	q
q2372	48370.0000000	0.5	q
q2377	48680.0000000	0.5	q
q2378	48050.0000000	0.5	q
q2380	99300.0000000	0.5	q
q2381	80300.0000000	0.5	q
q2382	69200.0000000	0.5	q
q2383	83400.0000000	0.5	q
q2388	105500.0000000	0.5	q
q2389	95000.0000000	0.5	q
q2390	88200.0000000	0.5	q
q2391	85200.0000000	0.5	q
q2392	80900.0000000	0.5	q
q2393	75700.0000000	0.5	q
q2394	73500.0000000	0.5	q
q2395	94300.0000000	0.5	q
q2396	74600.0000000	0.5	q
q2397	69600.0000000	0.5	q
q2398	96900.0000000	0.5	q
q2399	117000.0000000	0.5	q
q2400	89600.0000000	0.5	q
q2401	85600.0000000	0.5	q
q2402	79100.0000000	0.5	q
q2403	75000.0000000	0.5	q
q2404	74000.0000000	0.5	q
q2405	78800.0000000	0.5	q
q2406	81000.0000000	0.5	q
q2407	76700.0000000	0.5	q
q2408	76600.0000000	0.5	q
q2409	77600.0000000	0.5	q
q2410	83700.0000000	0.5	q
q2412	75800.0000000	0.5	q
q2413	85600.0000000	0.5	q
q2414	80000.0000000	0.5	q
q2416	93900.0000000	0.5	q
q2417	96900.0000000	0.5	q
q2418	89600.0000000	0.5	q
q2419	79200.0000000	0.5	q
q2420	74100.0000000	0.5	q
q2421	69360.0000000	0.5	q
q2422	67350.0000000	0.5	q
q2423	66920.0000000	0.5	q
q2424	67330.0000000	0.5	q
q2425	73490.0000000	0.5	q
q2426	75940.0000000	0.5	q
q2427	75360.0000000	0.5	q
q2428	72760.0000000	0.5	q
q2429	70480.0000000	0.5	q
q2430	69950.0000000	0.5	q
q2432	64190.0000000	0.5	q
q2433	65480.0000000	0.5	q
q2434	65330.0000000	0.5	q
q2435	63330.0000000	0.5	q
q2436	67320.0000000	0.5	q
q2437	59870.0000000	0.5	q
q2438	57380.0000000	0.5	q
q2439	55790.0000000	0.5	q
q2443	54060.0000000	0.5	q
q2444	56600.0000000	0.5	q
q2445	59030.0000000	0.5	q
q2447	74050.0000000	0.5	q
q2448	67070.0000000	0.5	q
q2449	63220.0000000	0.5	q
q2450	61590.0000000	0.5	q
q2451	62350.0000000	0.5	q
q2452	62190.0000000	0.5	q
q2453	65920.0000000	0.5	q
q2454	70080.0000000	0.5	q
q2455	66540.0000000	0.5	q
q2456	64950.0000000	0.5	q
q2457	62300.0000000	0.5	q
q2458	61380.0000000	0.5	q
q2459	66220.0000000	0.5	q
q2460	76460.0000000	0.5	q
q2461	78630.0000000	0.5	q
q2462	70900.0000000	0.5	q
q2463	79320.0000000	0.5	q
q2464	89100.0000000	0.5	q
q2465	92900.0000000	0.5	q
q2466	87600.0000000	0.5	q
q2467	92100.0000000	0.5	q
q2468	78730.0000000	0.5	q
q2469	70800.0000000	0.5	q
q2470	67120.0000000	0.5	q
q2472	66090.0000000	0.5	q
q2473	76090.0000000	0.5	q
q2474	90700.0000000	0.5	q
q2475	101700.0000000	0.5	q
q2476	102700.0000000	0.5	q
q2477	92700.0000000	0.5	q
q2479	99900.0000000	0.5	q
q2480	87200.0000000	0.5	q
q2481	82000.0000000	0.5	q
q2482	76310.0000000	0.5	q
q2485	77970.0000000	0.5	q
q2486	87300.0000000	0.5	q
q2487	102200.0000000	0.5	q
q2488	116400.0000000	0.5	q
q2489	125500.0000000	0.5	q
q2490	124500.0000000	0.5	q
q2493	106000.0000000	0.5	q
q2494	101100.0000000	0.5	q
q2495	104200.0000000	0.5	q
q2496	108800.0000000	0.5	q
q2500	108400.0000000	0.5	q
q2501	118100.0000000	0.5	q
q2502	113200.0000000	0.5	q
q2503	113500.0000000	0.5	q
q2504	123500.0000000	0.5	q
q2505	131000.0000000	0.5	q
q2506	143700.0000000	0.5	q
q2507	161200.0000000	0.5	q
q2508	172900.0000000	0.5	q
q2509	169200.0000000	0.5	q
q2510	164900.0000000	0.5	q
q2511	161400.0000000	0.5	q
q2512	156900.0000000	0.5	q
q2513	149000.0000000	0.5	q
q2514	148000.0000000	0.5	q
q2515	157500.0000000	0.5	q
q2516	169700.0000000	0.5	q
q2517	179800.0000000	0.5	q
q2518	189800.0000000	0.5	q
q2521	199100.0000000	0.5	q
q2522	200200.0000000	0.5	q
q2523	187000.0000000	0.5	q
q2524	182100.0000000	0.5	q
q2525	183100.0000000	0.5	q
q2527	207200.0000000	0.5	q
q2528	163300.0000000	0.5	q
q2529	171000.0000000	0.5	q
q2530	193800.0000000	0.5	q
q2531	212800.0000000	0.5	q
q2532	212000.0000000	0.5	q
q2533	228100.0000000	0.5	q
q2534	226000.0000000	0.5	q
q2535	225100.0000000	0.5	q
q2536	220900.0000000	0.5	q
q2537	222600.0000000	0.5	q
q2539	217400.0000000	0.5	q
q2540	193400.0000000	0.5	q
q2541	182200.0000000	0.5	q
q2542	170400.0000000	0.5	q
q2543	159800.0000000	0.5	q
q2544	170700.0000000	0.5	q
q2545	180100.0000000	0.5	q
q2546	174600.0000000	0.5	q
q2547	166600.0000000	0.5	q
q2548	177100.0000000	0.5	q
q2549	185400.0000000	0.5	q
q2550	153300.0000000	0.5	q
q2553	174200.0000000	0.5	q
q2554	195400.0000000	0.5	q
q2555	214900.0000000	0.5	q
q2561	230000.0000000	0.5	q
q2562	228900.0000000	0.5	q
q2563	215900.0000000	0.5	q
q2564	220900.0000000	0.5	q
q2565	220800.0000000	0.5	q
q2566	219800.0000000	0.5	q
q2567	208900.0000000	0.5	q
q2568	198900.0000000	0.5	q
q2569	195800.0000000	0.5	q
q2570	215700.0000000	0.5	q
q2571	230700.0000000	0.5	q
q2572	226600.0000000	0.5	q
q2573	216600.0000000	0.5	q
q2574	197600.0000000	0.5	q
q2575	187900.0000000	0.5	q
q2576	179800.0000000	0.5	q
q2577	170600.0000000	0.5	q
q2578	171800.0000000	0.5	q
q2579	160900.0000000	0.5	q
q2580	145100.0000000	0.5	q
q2581	149200.0000000	0.5	q
q2582	156700.0000000	0.5	q
q2583	156600.0000000	0.5	q
q2584	153200.0000000	0.5	q
q2585	150700.0000000	0.5	q
q2586	147900.0000000	0.5	q
q2587	143300.0000000	0.5	q
q2588	143600.0000000	0.5	q
q2592	139500.0000000	0.5	q
q2593	141500.0000000	0.5	q
q2594	141200.0000000	0.5	q
q2595	136400.0000000	0.5	q
q2596	133200.0000000	0.5	q
q2597	131200.0000000	0.5	q
q2598	135000.0000000	0.5	q
q2599	141700.0000000	0.5	q
q2600	141000.0000000	0.5	q
q2601	138900.0000000	0.5	q
q2602	136200.0000000	0.5	q
q2603	131200.0000000	0.5	q
q2604	125100.0000000	0.5	q
q2605	116100.0000000	0.5	q
q2606	104800.0000000	0.5	q
q2607	98000.0000000	0.5	q
q2608	91400.0000000	0.5	q
q2609	80370.0000000	0.5	q
q2613	85200.0000000	0.5	q
q2614	95700.0000000	0.5	q
q2615	100800.0000000	0.5	q
q2616	100400.0000000	0.5	q
q2617	92900.0000000	0.5	q
q2618	85100.0000000	0.5	q
q2619	83700.0000000	0.5	q
q2620	83000.0000000	0.5	q
q2621	84700.0000000	0.5	q
q2622	87900.0000000	0.5	q
q2623	91600.0000000	0.5	q
q2624	93600.0000000	0.5	q
q2625	87500.0000000	0.5	q
q2626	84800.0000000	0.5	q
q2627	87700.0000000	0.5	q
q2628	93200.0000000	0.5	q
q2629	95400.0000000	0.5	q
q2630	94200.0000000	0.5	q
q2631	80800.0000000	0.5	q
q2632	73120.0000000	0.5	q
q2633	76260.0000000	0.5	q
q2634	85000.0000000	0.5	q
q2638	92800.0000000	0.5	q
q2639	77090.0000000	0.5	q
q2640	73160.0000000	0.5	q
q2641	70980.0000000	0.5	q
q2644	60710.0000000	0.5	q
q2646	58670.0000000	0.5	q
q2647	55000.0000000	0.5	q
q2648	51970.0000000	0.5	q
q2649	52200.0000000	0.5	q
q2650	51020.0000000	0.5	q
q2651	50030.0000000	0.5	q
q2652	50510.0000000	0.5	q
q2653	49290.0000000	0.5	q
q2654	49690.0000000	0.5	q
q2655	50810.0000000	0.5	q
q2656	52000.0000000	0.5	q
q2657	48920.0000000	0.5	q
q2658	47900.0000000	0.5	q
q2659	45010.0000000	0.5	q
q2660	43890.0000000	0.5	q
q2661	43630.0000000	0.5	q
q2662	42140.0000000	0.5	q
q2663	41960.0000000	0.5	q
q2664	41490.0000000	0.5	q
q2665	41110.0000000	0.5	q
q2666	41480.0000000	0.5	q
q2667	40640.0000000	0.5	q
q2668	39870.0000000	0.5	q
q2670	38280.0000000	0.5	q
q2671	37800.0000000	0.5	q
q2672	37060.0000000	0.5	q
q2673	35570.0000000	0.5	q
q2674	35310.0000000	0.5	q
q2675	34710.0000000	0.5	q
q2678	33540.0000000	0.5	q
q2679	32800.0000000	0.5	q
q2683	32500.0000000	0.5	q
q2684	31810.0000000	0.5	q
q2685	30690.0000000	0.5	q
q2686	31490.0000000	0.5	q
q2687	30720.0000000	0.5	q
q2688	29710.0000000	0.5	q
q2689	29260.0000000	0.5	q
q2690	28720.0000000	0.5	q
q2691	28500.0000000	0.5	q
q2692	30280.0000000	0.5	q
q2693	29240.0000000	0.5	q
q2694	28350.0000000	0.5	q
q2695	27250.0000000	0.5	q
q2696	27070.0000000	0.5	q
q2697	26780.0000000	0.5	q
q2698	26740.0000000	0.5	q
q2699	26260.0000000	0.5	q
q2700	25507.0000000	0.5	q
q2701	25488.0000000	0.5	q
q2702	24871.0000000	0.5	q
q2704	24872.0000000	0.5	q
q2705	24770.0000000	0.5	q
q2708	26680.0000000	0.5	q
q2709	25030.0000000	0.5	q
q2710	23824.0000000	0.5	q
q2711	23952.0000000	0.5	q
q2712	24955.0000000	0.5	q
q2713	23816.0000000	0.5	q
q2714	23299.0000000	0.5	q
q2715	23054.0000000	0.5	q
q2716	22943.0000000	0.5	q
q2717	22428.0000000	0.5	q
q2719	22128.0000000	0.5	q
q2724	29790.0000000	0.5	q
q2725	26080.0000000	0.5	q
q2726	25100.0000000	0.5	q
q2727	26220.0000000	0.5	q
q2728	31990.0000000	0.5	q
q2729	29180.0000000	0.5	q
q2730	28070.0000000	0.5	q
q2731	26600.0000000	0.5	q
q2732	25590.0000000	0.5	q
q2733	26470.0000000	0.5	q
q2734	27560.0000000	0.5	q
q2735	26600.0000000	0.5	q
q2736	26860.0000000	0.5	q
q2737	27930.0000000	0.5	q
q2738	29260.0000000	0.5	q
q2739	29250.0000000	0.5	q
q2740	27910.0000000	0.5	q
q2745	45580.0000000	0.5	q
q2746	37640.0000000	0.5	q
q2747	33610.0000000	0.5	q
q2748	30250.0000000	0.5	q
q2749	29290.0000000	0.5	q
q2750	28620.0000000	0.5	q
q2751	31460.0000000	0.5	q
q2752	29430.0000000	0.5	q
q2753	28640.0000000	0.5	q
q2756	34210.0000000	0.5	q
q2757	33140.0000000	0.5	q
q2758	31360.0000000	0.5	q
q2759	31050.0000000	0.5	q
q2760	30140.0000000	0.5	q
q2761	35230.0000000	0.5	q
q2762	31890.0000000	0.5	q
q2763	30660.0000000	0.5	q
q2764	33000.0000000	0.5	q
q2765	34370.0000000	0.5	q
q2766	34210.0000000	0.5	q
q2767	34030.0000000	0.5	q
q2768	33140.0000000	0.5	q
q2769	31760.0000000	0.5	q
q2770	30980.0000000	0.5	q
q2771	29710.0000000	0.5	q
q2772	29090.0000000	0.5	q
q2773	28100.0000000	0.5	q
q2774	27990.0000000	0.5	q
q2775	27200.0000000	0.5	q
q2776	26980.0000000	0.5	q
q2777	28370.0000000	0.5	q
q2778	28430.0000000	0.5	q
q2779	26550.0000000	0.5	q
q2780	27640.0000000	0.5	q
q2781	28650.0000000	0.5	q
q2782	27190.0000000	0.5	q
q2784	29470.0000000	0.5	q
q2785	27820.0000000	0.5	q
q2786	27130.0000000	0.5	q
q2787	26870.0000000	0.5	q
q2788	26430.0000000	0.5	q
q2789	26820.0000000	0.5	q
q2790	28560.0000000	0.5	q
q2791	28600.0000000	0.5	q
q2792	27530.0000000	0.5	q
q2793	27150.0000000	0.5	q
q2794	27320.0000000	0.5	q
q2795	26560.0000000	0.5	q
q2796	26100.0000000	0.5	q
q2799	30490.0000000	0.5	q
q2800	32030.0000000	0.5	q
q2801	35140.0000000	0.5	q
q2802	37800.0000000	0.5	q
q2803	39280.0000000	0.5	q
q2804	33170.0000000	0.5	q
q2805	32460.0000000	0.5	q
q2806	38430.0000000	0.5	q
q2809	45500.0000000	0.5	q
q2810	42280.0000000	0.5	q
q2811	38880.0000000	0.5	q
q2812	37750.0000000	0.5	q
q2813	38470.0000000	0.5	q
q2814	36700.0000000	0.5	q
q2815	37740.0000000	0.5	q
q2816	35470.0000000	0.5	q
q2817	35810.0000000	0.5	q
q2818	34070.0000000	0.5	q
q2820	34130.0000000	0.5	q
q2823	35550.0000000	0.5	q
q2824	36610.0000000	0.5	q
q2825	38820.0000000	0.5	q
q2826	42410.0000000	0.5	q
q2827	42990.0000000	0.5	q
q2828	39490.0000000	0.5	q
q2829	45880.0000000	0.5	q
q2830	50660.0000000	0.5	q
q2831	53660.0000000	0.5	q
q2832	55570.0000000	0.5	q
q2833	60240.0000000	0.5	q
q2834	60060.0000000	0.5	q
q2835	51820.0000000	0.5	q
q2836	48540.0000000	0.5	q
q2837	51970.0000000	0.5	q
q2838	51830.0000000	0.5	q
q2839	55840.0000000	0.5	q
q2840	53540.0000000	0.5	q
q2841	54390.0000000	0.5	q
q2842	51740.0000000	0.5	q
q2843	52100.0000000	0.5	q
q2844	50090.0000000	0.5	q
q2845	47240.0000000	0.5	q
q2846	49720.0000000	0.5	q
q2847	56580.0000000	0.5	q
q2848	57930.0000000	0.5	q
q2849	61570.0000000	0.5	q
q2850	54850.0000000	0.5	q
q2851	60540.0000000	0.5	q
q2852	68160.0000000	0.5	q
q2853	77710.0000000	0.5	q
q2856	83900.0000000	0.5	q
q2858	84600.0000000	0.5	q
q2859	72380.0000000	0.5	q
q2860	69550.0000000	0.5	q
q2861	64000.0000000	0.5	q
q2865	67420.0000000	0.5	q
q2866	81080.0000000	0.5	q
q2867	88100.0000000	0.5	q
q2868	96300.0000000	0.5	q
q2869	103000.0000000	0.5	q
q2870	97300.0000000	0.5	q
q2871	79700.0000000	0.5	q
q2872	68790.0000000	0.5	q
q2876	77170.0000000	0.5	q
q2877	79140.0000000	0.5	q
q2878	75470.0000000	0.5	q
q2879	75460.0000000	0.5	q
q2880	87000.0000000	0.5	q
q2881	99300.0000000	0.5	q
q2885	109900.0000000	0.5	q
q2886	109200.0000000	0.5	q
q2887	108000.0000000	0.5	q
q2888	104800.0000000	0.5	q
q2892	115600.0000000	0.5	q
q2893	118300.0000000	0.5	q
q2894	123100.0000000	0.5	q
q2895	120000.0000000	0.5	q
q2896	110200.0000000	0.5	q
q2897	109300.0000000	0.5	q
q2900	101500.0000000	0.5	q
q2901	100900.0000000	0.5	q
q2902	104300.0000000	0.5	q
q2903	119800.0000000	0.5	q
q2904	124000.0000000	0.5	q
q2905	119000.0000000	0.5	q
q2906	119100.0000000	0.5	q
q2907	126800.0000000	0.5	q
q2914	131300.0000000	0.5	q
q2915	124200.0000000	0.5	q
q2916	121900.0000000	0.5	q
q2917	103100.0000000	0.5	q
q2918	97700.0000000	0.5	q
q2919	94800.0000000	0.5	q
q2920	95100.0000000	0.5	q
q2921	97400.0000000	0.5	q
q2922	99300.0000000	0.5	q
q2923	108600.0000000	0.5	q
q2924	114700.0000000	0.5	q
q2925	119100.0000000	0.5	q
q2926	121000.0000000	0.5	q
q2931	124100.0000000	0.5	q
q2932	106700.0000000	0.5	q
q2933	92600.0000000	0.5	q
q2934	100000.0000000	0.5	q
q2935	112200.0000000	0.5	q
q2936	113500.0000000	0.5	q
q2937	121300.0000000	0.5	q
q2940	119800.0000000	0.5	q
q2941	110300.0000000	0.5	q
q2942	109900.0000000	0.5	q
q2943	109700.0000000	0.5	q
q2944	101900.0000000	0.5	q
q2945	96100.0000000	0.5	q
q2946	92700.0000000	0.5	q
q2947	98000.0000000	0.5	q
q2948	89300.0000000	0.5	q
q2949	81400.0000000	0.5	q
q2950	88000.0000000	0.5	q
q2951	91500.0000000	0.5	q
q2952	97300.0000000	0.5	q
q2953	98200.0000000	0.5	q
q2954	91200.0000000	0.5	q
q2955	86800.0000000	0.5	q
q2960	95600.0000000	0.5	q
q2961	82800.0000000	0.5	q
q2962	82000.0000000	0.5	q
q2963	81030.0000000	0.5	q
q2964	87700.0000000	0.5	q
q2965	96300.0000000	0.5	q
q2967	93500.0000000	0.5	q
q2968	86900.0000000	0.5	q
q2969	86400.0000000	0.5	q
q2970	89700.0000000	0.5	q
q2971	90200.0000000	0.5	q
q2972	97200.0000000	0.5	q
q2973	94200.0000000	0.5	q
q2974	92800.0000000	0.5	q
q2975	86900.0000000	0.5	q
q2976	82400.0000000	0.5	q
q2977	78950.0000000	0.5	q
q2978	74920.0000000	0.5	q
q2982	74510.0000000	0.5	q
q2984	69790.0000000	0.5	q
q2985	70920.0000000	0.5	q
q2988	67250.0000000	0.5	q
q2989	56640.0000000	0.5	q
q2990	60560.0000000	0.5	q
q2991	50970.0000000	0.5	q
q2992	48760.0000000	0.5	q
q2993	49350.0000000	0.5	q
q2994	45480.0000000	0.5	q
q2995	46040.0000000	0.5	q
q2996	50500.0000000	0.5	q
q2997	54690.0000000	0.5	q
q2998	54670.0000000	0.5	q
q2999	52030.0000000	0.5	q
q3000	53410.0000000	0.5	q
q3001	55890.0000000	0.5	q
q3002	54220.0000000	0.5	q
q3003	57210.0000000	0.5	q
q3004	59290.0000000	0.5	q
q3005	61220.0000000	0.5	q
q3006	59520.0000000	0.5	q
q3007	50990.0000000	0.5	q
q3009	50360.0000000	0.5	q
q3014	44033.0000000	0.5	q
q3015	44492.0000000	0.5	q
q3016	44493.0000000	0.5	q
q3017	46082.0000000	0.5	q
q3018	47700.0000000	0.5	q
q3019	49030.0000000	0.5	q
q3020	45754.0000000	0.5	q
q3021	41939.0000000	0.5	q
q3022	43743.0000000	0.5	q
q3023	41530.0000000	0.5	q
q3024	38950.0000000	0.5	q
q3025	41248.0000000	0.5	q
q3026	33890.0000000	0.5	q
q3027	32005.0000000	0.5	q
q3031	29529.0000000	0.5	q
q3032	28777.0000000	0.5	q
q3033	29306.0000000	0.5	q
q3035	28806.0000000	0.5	q
q3036	27818.0000000	0.5	q
q3038	27536.0000000	0.5	q
q3039	26136.0000000	0.5	q
q3040	25958.0000000	0.5	q
q3041	32849.0000000	0.5	q
q3042	27889.0000000	0.5	q
q3044	26381.0000000	0.5	q
q3045	25733.0000000	0.5	q
q3046	25840.0000000	0.5	q
q3047	25030.0000000	0.5	q
q3048	24706.0000000	0.5	q
q3049	24262.0000000	0.5	q
q3050	23494.0000000	0.5	q
q3051	23018.0000000	0.5	q
q3057	21871.0000000	0.5	q
q3058	21479.0000000	0.5	q
q3060	21120.0000000	0.5	q
q3164	57600.0000000	0.5	q
q3165	56210.0000000	0.5	q
q3167	55060.0000000	0.5	q
q3168	54620.0000000	0.5	q
q3169	55050.0000000	0.5	q
q3170	53120.0000000	0.5	q
q3171	52360.0000000	0.5	q
q3172	51340.0000000	0.5	q
q3173	50520.0000000	0.5	q
q3178	48680.0000000	0.5	q
q3180	52570.0000000	0.5	q
q3181	56600.0000000	0.5	q
q3182	60130.0000000	0.5	q
q3183	63980.0000000	0.5	q
q3184	65700.0000000	0.5	q
q3185	61380.0000000	0.5	q
q3186	64310.0000000	0.5	q
q3187	68240.0000000	0.5	q
q3188	74000.0000000	0.5	q
q3189	72500.0000000	0.5	q
q3190	72800.0000000	0.5	q
q3191	79500.0000000	0.5	q
q3193	84300.0000000	0.5	q
q3194	82100.0000000	0.5	q
q3195	84500.0000000	0.5	q
q3197	97100.0000000	0.5	q
q3198	85200.0000000	0.5	q
q3199	78800.0000000	0.5	q
q3203	89200.0000000	0.5	q
q3204	99300.0000000	0.5	q
q3206	104400.0000000	0.5	q
q3207	96000.0000000	0.5	q
q3208	91500.0000000	0.5	q
q3209	87100.0000000	0.5	q
q3210	81400.0000000	0.5	q
q3211	81300.0000000	0.5	q
q3212	87600.0000000	0.5	q
q3213	93300.0000000	0.5	q
q3214	96800.0000000	0.5	q
q3215	103400.0000000	0.5	q
q3218	117800.0000000	0.5	q
q3219	120200.0000000	0.5	q
q3220	119200.0000000	0.5	q
q3221	121000.0000000	0.5	q
q3222	122600.0000000	0.5	q
q3223	112700.0000000	0.5	q
q3224	108400.0000000	0.5	q
q3225	106600.0000000	0.5	q
q3226	110100.0000000	0.5	q