pcf
* control data
restart  estimation
     90   4436      1      0      1
   2   2  single   point
 10.0  2.0  0.1  0.03  10
 10.0 10.0  0.01
0.1
-2  0.001  4  4  0.005  4
1  1  1  PARSAVEITN
* singular value decomposition
1
90 5E-06
1
* parameter groups
 pargroup absolute 0.01 0.0 switch 2.0 parabolic
* parameter data
 ddsd         none relative 10.0 7.0 13.0 pargroup 1.0 -10.0
 ddsw         none relative 10.0 7.0 13.0 pargroup 1.0 -10.0
 ddgd         none relative 10.0 7.0 13.0 pargroup 1.0 -10.0
 ddgw         none relative 10.0 7.0 13.0 pargroup 1.0 -10.0
 rcs1d        none relative 10.0 7.0 13.0 pargroup 1.0 -10.0
 rcs1w        none relative 10.0 7.0 13.0 pargroup 1.0 -10.0
 rcs2d        none relative 10.0 7.0 13.0 pargroup 1.0 -10.0
 rcs2w        none relative 10.0 7.0 13.0 pargroup 1.0 -10.0
 rcs3d        none relative 10.0 7.0 13.0 pargroup 1.0 -10.0
 rcs3w        none relative 10.0 7.0 13.0 pargroup 1.0 -10.0
 rcs4d        none relative 10.0 7.0 13.0 pargroup 1.0 -10.0
 rcs4w        none relative 10.0 7.0 13.0 pargroup 1.0 -10.0
 rcs5d        none relative 10.0 7.0 13.0 pargroup 1.0 -10.0
 rcs5w        none relative 10.0 7.0 13.0 pargroup 1.0 -10.0
 rcs6d        none relative 10.0 7.0 13.0 pargroup 1.0 -10.0
 rcs6w        none relative 10.0 7.0 13.0 pargroup 1.0 -10.0
 rcs7d        none relative 10.0 7.0 13.0 pargroup 1.0 -10.0
 rcs7w        none relative 10.0 7.0 13.0 pargroup 1.0 -10.0
 rcs8d        none relative 10.0 7.0 13.0 pargroup 1.0 -10.0
 rcs8w        none relative 10.0 7.0 13.0 pargroup 1.0 -10.0
 rcs9d        none relative 10.0 7.0 13.0 pargroup 1.0 -10.0
 rcs9w        none relative 10.0 7.0 13.0 pargroup 1.0 -10.0
 rcs10d       none relative 10.0 7.0 13.0 pargroup 1.0 -10.0
 rcs10w       none relative 10.0 7.0 13.0 pargroup 1.0 -10.0
 rcs11d       none relative 10.0 7.0 13.0 pargroup 1.0 -10.0
 rcs11w       none relative 10.0 7.0 13.0 pargroup 1.0 -10.0
 rcs12d       none relative 10.0 7.0 13.0 pargroup 1.0 -10.0
 rcs12w       none relative 10.0 7.0 13.0 pargroup 1.0 -10.0
 rcs13d       none relative 10.0 7.0 13.0 pargroup 1.0 -10.0
 rcs13w       none relative 10.0 7.0 13.0 pargroup 1.0 -10.0
 rcs14d       none relative 10.0 7.0 13.0 pargroup 1.0 -10.0
 rcs14w       none relative 10.0 7.0 13.0 pargroup 1.0 -10.0
 rcs15d       none relative 10.0 7.0 13.0 pargroup 1.0 -10.0
 rcs15w       none relative 10.0 7.0 13.0 pargroup 1.0 -10.0
 rcs16d       none relative 10.0 7.0 13.0 pargroup 1.0 -10.0
 rcs16w       none relative 10.0 7.0 13.0 pargroup 1.0 -10.0
 rcs17d       none relative 10.0 7.0 13.0 pargroup 1.0 -10.0
 rcs17w       none relative 10.0 7.0 13.0 pargroup 1.0 -10.0
 rcs18d       none relative 10.0 7.0 13.0 pargroup 1.0 -10.0
 rcs18w       none relative 10.0 7.0 13.0 pargroup 1.0 -10.0
 rcs19d       none relative 10.0 7.0 13.0 pargroup 1.0 -10.0
 rcs19w       none relative 10.0 7.0 13.0 pargroup 1.0 -10.0
 rcr1d        none relative 10.0 7.0 13.0 pargroup 1.0 -10.0
 rcr1w        none relative 10.0 7.0 13.0 pargroup 1.0 -10.0
 rcr2d        none relative 10.0 7.0 13.0 pargroup 1.0 -10.0
 rcr2w        none relative 10.0 7.0 13.0 pargroup 1.0 -10.0
 rcr3d        none relative 10.0 7.0 13.0 pargroup 1.0 -10.0
 rcr3w        none relative 10.0 7.0 13.0 pargroup 1.0 -10.0
 rcr4d        none relative 10.0 7.0 13.0 pargroup 1.0 -10.0
 rcr4w        none relative 10.0 7.0 13.0 pargroup 1.0 -10.0
 rcr5d        none relative 10.0 7.0 13.0 pargroup 1.0 -10.0
 rcr5w        none relative 10.0 7.0 13.0 pargroup 1.0 -10.0
 rcr6d        none relative 10.0 7.0 13.0 pargroup 1.0 -10.0
 rcr6w        none relative 10.0 7.0 13.0 pargroup 1.0 -10.0
 rcr7d        none relative 10.0 7.0 13.0 pargroup 1.0 -10.0
 rcr7w        none relative 10.0 7.0 13.0 pargroup 1.0 -10.0
 rcr8d        none relative 10.0 7.0 13.0 pargroup 1.0 -10.0
 rcr8w        none relative 10.0 7.0 13.0 pargroup 1.0 -10.0
 rcr9d        none relative 10.0 7.0 13.0 pargroup 1.0 -10.0
 rcr9w        none relative 10.0 7.0 13.0 pargroup 1.0 -10.0
 rcr10d       none relative 10.0 7.0 13.0 pargroup 1.0 -10.0
 rcr10w       none relative 10.0 7.0 13.0 pargroup 1.0 -10.0
 rcr11d       none relative 10.0 7.0 13.0 pargroup 1.0 -10.0
 rcr11w       none relative 10.0 7.0 13.0 pargroup 1.0 -10.0
 rcr12d       none relative 10.0 7.0 13.0 pargroup 1.0 -10.0
 rcr12w       none relative 10.0 7.0 13.0 pargroup 1.0 -10.0
 rcr13d       none relative 10.0 7.0 13.0 pargroup 1.0 -10.0
 rcr13w       none relative 10.0 7.0 13.0 pargroup 1.0 -10.0
 rcr14d       none relative 10.0 7.0 13.0 pargroup 1.0 -10.0
 rcr14w       none relative 10.0 7.0 13.0 pargroup 1.0 -10.0
 rcr15d       none relative 10.0 7.0 13.0 pargroup 1.0 -10.0
 rcr15w       none relative 10.0 7.0 13.0 pargroup 1.0 -10.0
 rcr16d       none relative 10.0 7.0 13.0 pargroup 1.0 -10.0
 rcr16w       none relative 10.0 7.0 13.0 pargroup 1.0 -10.0
 rcr17d       none relative 10.0 7.0 13.0 pargroup 1.0 -10.0
 rcr17w       none relative 10.0 7.0 13.0 pargroup 1.0 -10.0
 rcr18d       none relative 10.0 7.0 13.0 pargroup 1.0 -10.0
 rcr18w       none relative 10.0 7.0 13.0 pargroup 1.0 -10.0
 rcr19d       none relative 10.0 7.0 13.0 pargroup 1.0 -10.0
 rcr19w       none relative 10.0 7.0 13.0 pargroup 1.0 -10.0
 rcgd         none relative 10.0 7.0 13.0 pargroup 1.0 -10.0
 rcgw         none relative 10.0 7.0 13.0 pargroup 1.0 -10.0
 tl           none relative 10.0 7.0 13.0 pargroup 1.0 -10.0
 xw           none relative 10.0 7.0 13.0 pargroup 1.0 -10.0
 yw           none relative 10.0 7.0 13.0 pargroup 1.0 -10.0
 x            none relative 10.0 7.0 13.0 pargroup 1.0 -10.0
 y            none relative 10.0 7.0 13.0 pargroup 1.0 -10.0
 tlr          none relative 10.0 7.0 13.0 pargroup 1.0 -10.0
 tls          none relative 10.0 7.0 13.0 pargroup 1.0 -10.0
 beta         none relative 10.0 7.0 13.0 pargroup 1.0 -10.0
* observation groups
q
* observation data
q2039                  61800.00       1.469667E-05  q
q2040                  71700.00       1.469667E-05  q
q2041                  112500.0       1.469667E-05  q
q2042                  136600.0       1.469667E-05  q
q2043                  112100.0       1.469667E-05  q
q2044                  107600.0       1.469667E-05  q
q2045                  96400.00       1.469667E-05  q
q2046                  100200.0       1.469667E-05  q
q2047                  103300.0       1.469667E-05  q
q2048                  95000.00       1.469667E-05  q
q2049                  96900.00       1.469667E-05  q
q2050                  92500.00       1.469667E-05  q
q2051                  93900.00       1.469667E-05  q
q2052                  106100.0       1.469667E-05  q
q2053                  118800.0       1.469667E-05  q
q2054                  92300.00       1.469667E-05  q
q2056                  109100.0       1.469667E-05  q
q2057                  100900.0       1.469667E-05  q
q2058                  97000.00       1.469667E-05  q
q2059                  95100.00       1.469667E-05  q
q2060                  88800.00       1.469667E-05  q
q2061                  84300.00       1.469667E-05  q
q2062                  87100.00       1.469667E-05  q
q2063                  80400.00       1.469667E-05  q
q2064                  79000.00       1.469667E-05  q
q2065                  133500.0       1.469667E-05  q
q2068                  152700.0       1.469667E-05  q
q2069                  124700.0       1.469667E-05  q
q2070                  108700.0       1.469667E-05  q
q2071                  99300.00       1.469667E-05  q
q2072                  92700.00       1.469667E-05  q
q2073                  93400.00       1.469667E-05  q
q2074                  85200.00       1.469667E-05  q
q2075                  92500.00       1.469667E-05  q
q2076                  97400.00       1.469667E-05  q
q2077                  100600.0       1.469667E-05  q
q2078                  103600.0       1.469667E-05  q
q2079                  109900.0       1.469667E-05  q
q2080                  98800.00       1.469667E-05  q
q2081                  89000.00       1.469667E-05  q
q2082                  84300.00       1.469667E-05  q
q2083                  81400.00       1.469667E-05  q
q2084                  80700.00       1.469667E-05  q
q2085                  77930.00       1.469667E-05  q
q2086                  77500.00       1.469667E-05  q
q2087                  79500.00       1.469667E-05  q
q2088                  80700.00       1.469667E-05  q
q2089                  81500.00       1.469667E-05  q
q2090                  83600.00       1.469667E-05  q
q2091                  87300.00       1.469667E-05  q
q2092                  86200.00       1.469667E-05  q
q2093                  80600.00       1.469667E-05  q
q2095                  78070.00       1.469667E-05  q
q2096                  80700.00       1.469667E-05  q
q2097                  83900.00       1.469667E-05  q
q2098                  83900.00       1.469667E-05  q
q2103                  74210.00       1.469667E-05  q
q2104                  79480.00       1.469667E-05  q
q2105                  73470.00       1.469667E-05  q
q2107                  77270.00       1.469667E-05  q
q2108                  81100.00       1.469667E-05  q
q2109                  90100.00       1.469667E-05  q
q2110                  101800.0       1.469667E-05  q
q2111                  113200.0       1.469667E-05  q
q2112                  113200.0       1.469667E-05  q
q2113                  107400.0       1.469667E-05  q
q2114                  109500.0       1.469667E-05  q
q2115                  116900.0       1.469667E-05  q
q2116                  114200.0       1.469667E-05  q
q2117                  114900.0       1.469667E-05  q
q2118                  123600.0       1.469667E-05  q
q2119                  142800.0       1.469667E-05  q
q2120                  162400.0       1.469667E-05  q
q2123                  167100.0       1.469667E-05  q
q2125                  148900.0       1.469667E-05  q
q2126                  137700.0       1.469667E-05  q
q2127                  134800.0       1.469667E-05  q
q2128                  130000.0       1.469667E-05  q
q2129                  126800.0       1.469667E-05  q
q2130                  127400.0       1.469667E-05  q
q2131                  136800.0       1.469667E-05  q
q2134                  200900.0       1.469667E-05  q
q2135                  200700.0       1.469667E-05  q
q2136                  207500.0       1.469667E-05  q
q2137                  220500.0       1.469667E-05  q
q2138                  238400.0       1.469667E-05  q
q2139                  246200.0       1.469667E-05  q
q2140                  253000.0       1.469667E-05  q
q2141                  269000.0       1.469667E-05  q
q2142                  293300.0       1.469667E-05  q
q2143                  315000.0       1.469667E-05  q
q2144                  323800.0       1.469667E-05  q
q2145                  310400.0       1.469667E-05  q
q2146                  329100.0       1.469667E-05  q
q2147                  318200.0       1.469667E-05  q
q2148                  298300.0       1.469667E-05  q
q2149                  292000.0       1.469667E-05  q
q2150                  312500.0       1.469667E-05  q
q2151                  337700.0       1.469667E-05  q
q2152                  350700.0       1.469667E-05  q
q2155                  327700.0       1.469667E-05  q
q2156                  322100.0       1.469667E-05  q
q2157                  357400.0       1.469667E-05  q
q2158                  356500.0       1.469667E-05  q
q2159                  355500.0       1.469667E-05  q
q2161                  352700.0       1.469667E-05  q
q2162                  384700.0       1.469667E-05  q
q2163                  363300.0       1.469667E-05  q
q2164                  352200.0       1.469667E-05  q
q2165                  279000.0       1.469667E-05  q
q2166                  224300.0       1.469667E-05  q
q2167                  211700.0       1.469667E-05  q
q2168                  213700.0       1.469667E-05  q
q2171                  237500.0       1.469667E-05  q
q2172                  273400.0       1.469667E-05  q
q2173                  294300.0       1.469667E-05  q
q2174                  309500.0       1.469667E-05  q
q2175                  311200.0       1.469667E-05  q
q2176                  314600.0       1.469667E-05  q
q2177                  343400.0       1.469667E-05  q
q2178                  348400.0       1.469667E-05  q
q2179                  348300.0       1.469667E-05  q
q2180                  369900.0       1.469667E-05  q
q2181                  345700.0       1.469667E-05  q
q2182                  351400.0       1.469667E-05  q
q2183                  364100.0       1.469667E-05  q
q2184                  405400.0       1.469667E-05  q
q2185                  430000.0       1.469667E-05  q
q2189                  416300.0       1.469667E-05  q
q2190                  376400.0       1.469667E-05  q
q2191                  366200.0       1.469667E-05  q
q2192                  353300.0       1.469667E-05  q
q2193                  343500.0       1.469667E-05  q
q2194                  330300.0       1.469667E-05  q
q2195                  320200.0       1.469667E-05  q
q2196                  331000.0       1.469667E-05  q
q2197                  334300.0       1.469667E-05  q
q2201                  339500.0       1.469667E-05  q
q2202                  325400.0       1.469667E-05  q
q2203                  319500.0       1.469667E-05  q
q2204                  310400.0       1.469667E-05  q
q2205                  308200.0       1.469667E-05  q
q2206                  318300.0       1.469667E-05  q
q2207                  306100.0       1.469667E-05  q
q2208                  296000.0       1.469667E-05  q
q2209                  304800.0       1.469667E-05  q
q2210                  319300.0       1.469667E-05  q
q2211                  332300.0       1.469667E-05  q
q2212                  311100.0       1.469667E-05  q
q2213                  302400.0       1.469667E-05  q
q2214                  302100.0       1.469667E-05  q
q2215                  288100.0       1.469667E-05  q
q2216                  275200.0       1.469667E-05  q
q2217                  274000.0       1.469667E-05  q
q2218                  280000.0       1.469667E-05  q
q2219                  288700.0       1.469667E-05  q
q2220                  292700.0       1.469667E-05  q
q2221                  287800.0       1.469667E-05  q
q2222                  286900.0       1.469667E-05  q
q2223                  297900.0       1.469667E-05  q
q2227                  257400.0       1.469667E-05  q
q2228                  239500.0       1.469667E-05  q
q2229                  232400.0       1.469667E-05  q
q2230                  236100.0       1.469667E-05  q
q2231                  224300.0       1.469667E-05  q
q2232                  213200.0       1.469667E-05  q
q2233                  220300.0       1.469667E-05  q
q2234                  246200.0       1.469667E-05  q
q2235                  256200.0       1.469667E-05  q
q2236                  253000.0       1.469667E-05  q
q2237                  250100.0       1.469667E-05  q
q2238                  225200.0       1.469667E-05  q
q2239                  209100.0       1.469667E-05  q
q2240                  202200.0       1.469667E-05  q
q2241                  213500.0       1.469667E-05  q
q2242                  225400.0       1.469667E-05  q
q2243                  219300.0       1.469667E-05  q
q2244                  205400.0       1.469667E-05  q
q2245                  189500.0       1.469667E-05  q
q2246                  160900.0       1.469667E-05  q
q2248                  158500.0       1.469667E-05  q
q2249                  154900.0       1.469667E-05  q
q2254                  106400.0       1.469667E-05  q
q2255                  104100.0       1.469667E-05  q
q2256                  107100.0       1.469667E-05  q
q2257                  110200.0       1.469667E-05  q
q2258                  105300.0       1.469667E-05  q
q2259                  100600.0       1.469667E-05  q
q2260                  101000.0       1.469667E-05  q
q2261                  102700.0       1.469667E-05  q
q2262                  104400.0       1.469667E-05  q
q2263                  105300.0       1.469667E-05  q
q2264                  106500.0       1.469667E-05  q
q2265                  99300.00       1.469667E-05  q
q2266                  98800.00       1.469667E-05  q
q2267                  92800.00       1.469667E-05  q
q2268                  88300.00       1.469667E-05  q
q2269                  86900.00       1.469667E-05  q
q2270                  92700.00       1.469667E-05  q
q2271                  93100.00       1.469667E-05  q
q2272                  95600.00       1.469667E-05  q
q2273                  92500.00       1.469667E-05  q
q2274                  88800.00       1.469667E-05  q
q2275                  88900.00       1.469667E-05  q
q2276                  88000.00       1.469667E-05  q
q2277                  83200.00       1.469667E-05  q
q2278                  81300.00       1.469667E-05  q
q2279                  80020.00       1.469667E-05  q
q2283                  71060.00       1.469667E-05  q
q2284                  71930.00       1.469667E-05  q
q2285                  72220.00       1.469667E-05  q
q2286                  73320.00       1.469667E-05  q
q2287                  72280.00       1.469667E-05  q
q2288                  69810.00       1.469667E-05  q
q2289                  68470.00       1.469667E-05  q
q2290                  64850.00       1.469667E-05  q
q2291                  63950.00       1.469667E-05  q
q2292                  62370.00       1.469667E-05  q
q2293                  60940.00       1.469667E-05  q
q2294                  58000.00       1.469667E-05  q
q2295                  57120.00       1.469667E-05  q
q2296                  54160.00       1.469667E-05  q
q2297                  51590.00       1.469667E-05  q
q2299                  49580.00       1.469667E-05  q
q2300                  48390.00       1.469667E-05  q
q2301                  47530.00       1.469667E-05  q
q2303                  63580.00       1.469667E-05  q
q2304                  57560.00       1.469667E-05  q
q2305                  55800.00       1.469667E-05  q
q2306                  54700.00       1.469667E-05  q
q2307                  52100.00       1.469667E-05  q
q2310                  49280.00       1.469667E-05  q
q2311                  48360.00       1.469667E-05  q
q2312                  47200.00       1.469667E-05  q
q2313                  46610.00       1.469667E-05  q
q2314                  46260.00       1.469667E-05  q
q2315                  45300.00       1.469667E-05  q
q2316                  45490.00       1.469667E-05  q
q2317                  44400.00       1.469667E-05  q
q2318                  44000.00       1.469667E-05  q
q2319                  42250.00       1.469667E-05  q
q2320                  41060.00       1.469667E-05  q
q2321                  42130.00       1.469667E-05  q
q2322                  38820.00       1.469667E-05  q
q2323                  39850.00       1.469667E-05  q
q2325                  38860.00       1.469667E-05  q
q2327                  38460.00       1.469667E-05  q
q2328                  41920.00       1.469667E-05  q
q2329                  39740.00       1.469667E-05  q
q2330                  37650.00       1.469667E-05  q
q2331                  36140.00       1.469667E-05  q
q2332                  35130.00       1.469667E-05  q
q2333                  35260.00       1.469667E-05  q
q2334                  35720.00       1.469667E-05  q
q2335                  35110.00       1.469667E-05  q
q2336                  54770.00       1.469667E-05  q
q2339                  69660.00       1.469667E-05  q
q2340                  50530.00       1.469667E-05  q
q2341                  46460.00       1.469667E-05  q
q2342                  44500.00       1.469667E-05  q
q2343                  42160.00       1.469667E-05  q
q2344                  40290.00       1.469667E-05  q
q2345                  40200.00       1.469667E-05  q
q2346                  38710.00       1.469667E-05  q
q2347                  37600.00       1.469667E-05  q
q2348                  44070.00       1.469667E-05  q
q2349                  99600.00       1.469667E-05  q
q2350                  82600.00       1.469667E-05  q
q2352                  78500.00       1.469667E-05  q
q2353                  57440.00       1.469667E-05  q
q2354                  52610.00       1.469667E-05  q
q2355                  54840.00       1.469667E-05  q
q2357                  83100.00       1.469667E-05  q
q2358                  69000.00       1.469667E-05  q
q2359                  63560.00       1.469667E-05  q
q2360                  58880.00       1.469667E-05  q
q2361                  55500.00       1.469667E-05  q
q2362                  55350.00       1.469667E-05  q
q2363                  52560.00       1.469667E-05  q
q2364                  50070.00       1.469667E-05  q
q2365                  49470.00       1.469667E-05  q
q2366                  49640.00       1.469667E-05  q
q2367                  50690.00       1.469667E-05  q
q2368                  49640.00       1.469667E-05  q
q2370                  49010.00       1.469667E-05  q
q2372                  48370.00       1.469667E-05  q
q2377                  48680.00       1.469667E-05  q
q2378                  48050.00       1.469667E-05  q
q2380                  99300.00       1.469667E-05  q
q2381                  80300.00       1.469667E-05  q
q2382                  69200.00       1.469667E-05  q
q2383                  83400.00       1.469667E-05  q
q2388                  105500.0       1.469667E-05  q
q2389                  95000.00       1.469667E-05  q
q2390                  88200.00       1.469667E-05  q
q2391                  85200.00       1.469667E-05  q
q2392                  80900.00       1.469667E-05  q
q2393                  75700.00       1.469667E-05  q
q2394                  73500.00       1.469667E-05  q
q2395                  94300.00       1.469667E-05  q
q2396                  74600.00       1.469667E-05  q
q2397                  69600.00       1.469667E-05  q
q2398                  96900.00       1.469667E-05  q
q2399                  117000.0       1.469667E-05  q
q2400                  89600.00       1.469667E-05  q
q2401                  85600.00       1.469667E-05  q
q2402                  79100.00       1.469667E-05  q
q2403                  75000.00       1.469667E-05  q
q2404                  74000.00       1.469667E-05  q
q2405                  78800.00       1.469667E-05  q
q2406                  81000.00       1.469667E-05  q
q2407                  76700.00       1.469667E-05  q
q2408                  76600.00       1.469667E-05  q
q2409                  77600.00       1.469667E-05  q
q2410                  83700.00       1.469667E-05  q
q2412                  75800.00       1.469667E-05  q
q2413                  85600.00       1.469667E-05  q
q2414                  80000.00       1.469667E-05  q
q2416                  93900.00       1.469667E-05  q
q2417                  96900.00       1.469667E-05  q
q2418                  89600.00       1.469667E-05  q
q2419                  79200.00       1.469667E-05  q
q2420                  74100.00       1.469667E-05  q
q2421                  69360.00       1.469667E-05  q
q2422                  67350.00       1.469667E-05  q
q2423                  66920.00       1.469667E-05  q
q2424                  67330.00       1.469667E-05  q
q2425                  73490.00       1.469667E-05  q
q2426                  75940.00       1.469667E-05  q
q2427                  75360.00       1.469667E-05  q
q2428                  72760.00       1.469667E-05  q
q2429                  70480.00       1.469667E-05  q
q2430                  69950.00       1.469667E-05  q
q2432                  64190.00       1.469667E-05  q
q2433                  65480.00       1.469667E-05  q
q2434                  65330.00       1.469667E-05  q
q2435                  63330.00       1.469667E-05  q
q2436                  67320.00       1.469667E-05  q
q2437                  59870.00       1.469667E-05  q
q2438                  57380.00       1.469667E-05  q
q2439                  55790.00       1.469667E-05  q
q2443                  54060.00       1.469667E-05  q
q2444                  56600.00       1.469667E-05  q
q2445                  59030.00       1.469667E-05  q
q2447                  74050.00       1.469667E-05  q
q2448                  67070.00       1.469667E-05  q
q2449                  63220.00       1.469667E-05  q
q2450                  61590.00       1.469667E-05  q
q2451                  62350.00       1.469667E-05  q
q2452                  62190.00       1.469667E-05  q
q2453                  65920.00       1.469667E-05  q
q2454                  70080.00       1.469667E-05  q
q2455                  66540.00       1.469667E-05  q
q2456                  64950.00       1.469667E-05  q
q2457                  62300.00       1.469667E-05  q
q2458                  61380.00       1.469667E-05  q
q2459                  66220.00       1.469667E-05  q
q2460                  76460.00       1.469667E-05  q
q2461                  78630.00       1.469667E-05  q
q2462                  70900.00       1.469667E-05  q
q2463                  79320.00       1.469667E-05  q
q2464                  89100.00       1.469667E-05  q
q2465                  92900.00       1.469667E-05  q
q2466                  87600.00       1.469667E-05  q
q2467                  92100.00       1.469667E-05  q
q2468                  78730.00       1.469667E-05  q
q2469                  70800.00       1.469667E-05  q
q2470                  67120.00       1.469667E-05  q
q2472                  66090.00       1.469667E-05  q
q2473                  76090.00       1.469667E-05  q
q2474                  90700.00       1.469667E-05  q
q2475                  101700.0       1.469667E-05  q
q2476                  102700.0       1.469667E-05  q
q2477                  92700.00       1.469667E-05  q
q2479                  99900.00       1.469667E-05  q
q2480                  87200.00       1.469667E-05  q
q2481                  82000.00       1.469667E-05  q
q2482                  76310.00       1.469667E-05  q
q2485                  77970.00       1.469667E-05  q
q2486                  87300.00       1.469667E-05  q
q2487                  102200.0       1.469667E-05  q
q2488                  116400.0       1.469667E-05  q
q2489                  125500.0       1.469667E-05  q
q2490                  124500.0       1.469667E-05  q
q2493                  106000.0       1.469667E-05  q
q2494                  101100.0       1.469667E-05  q
q2495                  104200.0       1.469667E-05  q
q2496                  108800.0       1.469667E-05  q
q2500                  108400.0       1.469667E-05  q
q2501                  118100.0       1.469667E-05  q
q2502                  113200.0       1.469667E-05  q
q2503                  113500.0       1.469667E-05  q
q2504                  123500.0       1.469667E-05  q
q2505                  131000.0       1.469667E-05  q
q2506                  143700.0       1.469667E-05  q
q2507                  161200.0       1.469667E-05  q
q2508                  172900.0       1.469667E-05  q
q2509                  169200.0       1.469667E-05  q
q2510                  164900.0       1.469667E-05  q
q2511                  161400.0       1.469667E-05  q
q2512                  156900.0       1.469667E-05  q
q2513                  149000.0       1.469667E-05  q
q2514                  148000.0       1.469667E-05  q
q2515                  157500.0       1.469667E-05  q
q2516                  169700.0       1.469667E-05  q
q2517                  179800.0       1.469667E-05  q
q2518                  189800.0       1.469667E-05  q
q2521                  199100.0       1.469667E-05  q
q2522                  200200.0       1.469667E-05  q
q2523                  187000.0       1.469667E-05  q
q2524                  182100.0       1.469667E-05  q
q2525                  183100.0       1.469667E-05  q
q2527                  207200.0       1.469667E-05  q
q2528                  163300.0       1.469667E-05  q
q2529                  171000.0       1.469667E-05  q
q2530                  193800.0       1.469667E-05  q
q2531                  212800.0       1.469667E-05  q
q2532                  212000.0       1.469667E-05  q
q2533                  228100.0       1.469667E-05  q
q2534                  226000.0       1.469667E-05  q
q2535                  225100.0       1.469667E-05  q
q2536                  220900.0       1.469667E-05  q
q2537                  222600.0       1.469667E-05  q
q2539                  217400.0       1.469667E-05  q
q2540                  193400.0       1.469667E-05  q
q2541                  182200.0       1.469667E-05  q
q2542                  170400.0       1.469667E-05  q
q2543                  159800.0       1.469667E-05  q
q2544                  170700.0       1.469667E-05  q
q2545                  180100.0       1.469667E-05  q
q2546                  174600.0       1.469667E-05  q
q2547                  166600.0       1.469667E-05  q
q2548                  177100.0       1.469667E-05  q
q2549                  185400.0       1.469667E-05  q
q2550                  153300.0       1.469667E-05  q
q2553                  174200.0       1.469667E-05  q
q2554                  195400.0       1.469667E-05  q
q2555                  214900.0       1.469667E-05  q
q2561                  230000.0       1.469667E-05  q
q2562                  228900.0       1.469667E-05  q
q2563                  215900.0       1.469667E-05  q
q2564                  220900.0       1.469667E-05  q
q2565                  220800.0       1.469667E-05  q
q2566                  219800.0       1.469667E-05  q
q2567                  208900.0       1.469667E-05  q
q2568                  198900.0       1.469667E-05  q
q2569                  195800.0       1.469667E-05  q