pcf
* control data
restart estimation
90    7856      18       0       1
2    2 single point   1   0   0
10.0  -3  0.3  0.03  10  lamforgive derforgive
10.0  10.0  0.001
0.1  noaui
   -2  0.005  4  4  0.005  4
0 0 0  PARSAVEITN
* singular value decomposition
1
90 5E-07
0
* parameter groups
ddsd         relative 0.025  0.0  switch  2.0 parabolic 1.0e-4 0.5 smaller
ddsw         relative 0.025  0.0  switch  2.0 parabolic 1.0e-4 0.5 smaller
ddgd         relative 0.025  0.0  switch  2.0 parabolic 1.0e-4 0.5 smaller
ddgw         relative 0.025  0.0  switch  2.0 parabolic 1.0e-4 0.5 smaller
rcsd         relative 0.025  0.0  switch  2.0 parabolic 1.0e-4 0.5 smaller
rcsw         relative 0.025  0.0  switch  2.0 parabolic 1.0e-4 0.5 smaller
rcrd         relative 0.025  0.0  switch  2.0 parabolic 1.0e-4 0.5 smaller
rcrw         relative 0.025  0.0  switch  2.0 parabolic 1.0e-4 0.5 smaller
rcgd         relative 0.025  0.0  switch  2.0 parabolic 1.0e-4 0.5 smaller
rcgw         relative 0.025  0.0  switch  2.0 parabolic 1.0e-4 0.5 smaller
tl           relative 0.025  0.0  switch  2.0 parabolic 1.0e-4 0.5 smaller
xw           relative 0.025  0.0  switch  2.0 parabolic 1.0e-4 0.5 smaller
yw           relative 0.03  0.0  switch  2.0 parabolic 1.0e-4 0.5 smaller
x           relative 0.025  0.0  switch  2.0 parabolic 1.0e-4 0.5 smaller
y            relative 0.025  0.0  switch  2.0 parabolic 1.0e-4 0.5 smaller
tlr			 relative 0.5  0.0  switch  2.0 parabolic 1.0e-4 0.5 smaller
tls			 relative 0.5  0.0  switch  2.0 parabolic 1.0e-4 0.5 smaller
beta			 relative 0.025  0.0  switch  2.0 parabolic 1.0e-4 0.5 smaller
* parameter data
ddsd	log	factor   0.3298200      1.00e-01	2.1	ddsd	1	0	1
ddsw	log	factor    2.100000      1.00e-01	2.1	ddsw	1	0	1
ddgd	log	factor   0.6709140      1.00e-08	1.1	ddgd	1	0	1
ddgw	log	factor   9.4569350E-02  1.00e-08	1.1	ddgw	1	0	1
rcs1d	log	factor   0.3080526      1.00e-08	1	rcsd	1	0	1
rcs1w	log	factor   0.5727837      1.00e-08	1	rcsw	1	0	1
rcs2d	log	factor   0.6714981      1.00e-08	1	rcsd	1	0	1
rcs2w	log	factor   0.9991055      1.00e-08	1	rcsw	1	0	1
rcs3d	log	factor   0.1031036      1.00e-08	1	rcsd	1	0	1
rcs3w	log	factor    1.000000      1.00e-08	1	rcsw	1	0	1
rcs4d	log	factor   2.0078735E-02  1.00e-08	1	rcsd	1	0	1
rcs4w	log	factor    1.000000      1.00e-08	1	rcsw	1	0	1
rcs5d	log	factor   2.0354230E-02  1.00e-08	1	rcsd	1	0	1
rcs5w	log	factor   0.3965705      1.00e-08	1	rcsw	1	0	1
rcs6d	log	factor   1.6774575E-02  1.00e-08	1	rcsd	1	0	1
rcs6w	log	factor   5.6940853E-02  1.00e-08	1	rcsw	1	0	1
rcs7d	log	factor   5.3149631E-03  1.00e-08	1	rcsd	1	0	1
rcs7w	log	factor   0.6871180      1.00e-08	1	rcsw	1	0	1
rcs8d	log	factor   0.9553521      1.00e-08	1	rcsd	1	0	1
rcs8w	log	factor   7.4660982E-03  1.00e-08	1	rcsw	1	0	1
rcs9d	log	factor   0.4971962      1.00e-08	1	rcsd	1	0	1
rcs9w	log	factor    1.000000      1.00e-08	1	rcsw	1	0	1
rcs10d	log	factor   3.1171429E-02  1.00e-08	1	rcsd	1	0	1
rcs10w	log	factor   5.8532775E-03  1.00e-08	1	rcsw	1	0	1
rcs11d	log	factor   6.9270182E-03  1.00e-08	1	rcsd	1	0	1
rcs11w	log	factor   6.4913449E-03  1.00e-08	1	rcsw	1	0	1
rcs12d	log	factor    1.000000      1.00e-08	1	rcsd	1	0	1
rcs12w	log	factor   0.1170564      1.00e-08	1	rcsw	1	0	1
rcs13d	log	factor    1.000000      1.00e-08	1	rcsd	1	0	1
rcs13w	log	factor    1.000000      1.00e-08	1	rcsw	1	0	1
rcs14d	log	factor   0.8911238      1.00e-08	1	rcsd	1	0	1
rcs14w	log	factor    1.000000      1.00e-08	1	rcsw	1	0	1
rcs15d	log	factor    1.000000      1.00e-08	1	rcsd	1	0	1
rcs15w	log	factor    1.000000      1.00e-08	1	rcsw	1	0	1
rcs16d	log	factor    1.000000      1.00e-08	1	rcsd	1	0	1
rcs16w	log	factor    1.000000      1.00e-08	1	rcsw	1	0	1
rcs17d	log	factor    1.000000      1.00e-08	1	rcsd	1	0	1
rcs17w	log	factor    1.000000      1.00e-08	1	rcsw	1	0	1
rcs18d	log	factor    1.000000      1.00e-08	1	rcsd	1	0	1
rcs18w	log	factor    1.000000      1.00e-08	1	rcsw	1	0	1
rcs19d	log	factor    1.000000      1.00e-08	1	rcsd	1	0	1
rcs19w	log	factor   9.8343706E-02  1.00e-08	1	rcsw	1	0	1
rcr1d	log	factor   5.3927184E-02  1.00e-08	1	rcrd	1	0	1
rcr1w	log	factor   0.1052397      1.00e-08	1	rcrw	1	0	1
rcr2d	log	factor   0.6628757      1.00e-08	1	rcrd	1	0	1
rcr2w	log	factor    1.000000      1.00e-08	1	rcrw	1	0	1
rcr3d	log	factor   5.5156687E-02  1.00e-08	1	rcrd	1	0	1
rcr3w	log	factor    1.000000      1.00e-08	1	rcrw	1	0	1
rcr4d	log	factor   1.8343361E-02  1.00e-08	1	rcrd	1	0	1
rcr4w	log	factor   6.6382344E-02  1.00e-08	1	rcrw	1	0	1
rcr5d	log	factor   8.3716006E-03  1.00e-08	1	rcrd	1	0	1
rcr5w	log	factor   1.1408311E-02  1.00e-08	1	rcrw	1	0	1
rcr6d	log	factor   1.1228942E-02  1.00e-08	1	rcrd	1	0	1
rcr6w	log	factor   1.2406750E-02  1.00e-08	1	rcrw	1	0	1
rcr7d	log	factor   7.4109017E-03  1.00e-08	1	rcrd	1	0	1
rcr7w	log	factor   8.3974141E-03  1.00e-08	1	rcrw	1	0	1
rcr8d	log	factor   3.7289153E-03  1.00e-08	1	rcrd	1	0	1
rcr8w	log	factor   9.1078310E-03  1.00e-08	1	rcrw	1	0	1
rcr9d	log	factor   3.6447861E-03  1.00e-08	1	rcrd	1	0	1
rcr9w	log	factor   8.6577818E-03  1.00e-08	1	rcrw	1	0	1
rcr10d	log	factor   4.8220373E-03  1.00e-08	1	rcrd	1	0	1
rcr10w	log	factor   5.6125889E-03  1.00e-08	1	rcrw	1	0	1
rcr11d	log	factor   3.4288915E-03  1.00e-08	1	rcrd	1	0	1
rcr11w	log	factor   3.1739504E-03  1.00e-08	1	rcrw	1	0	1
rcr12d	log	factor   2.5931909E-03  1.00e-08	1	rcrd	1	0	1
rcr12w	log	factor   3.1970863E-03  1.00e-08	1	rcrw	1	0	1
rcr13d	log	factor   4.7927363E-03  1.00e-08	1	rcrd	1	0	1
rcr13w	log	factor    1.000000      1.00e-08	1	rcrw	1	0	1
rcr14d	log	factor   8.7029919E-03  1.00e-08	1	rcrd	1	0	1
rcr14w	log	factor    1.000000      1.00e-08	1	rcrw	1	0	1
rcr15d	log	factor   1.8347432E-02  1.00e-08	1	rcrd	1	0	1
rcr15w	log	factor   2.6052733E-02  1.00e-08	1	rcrw	1	0	1
rcr16d	log	factor   2.9740260E-02  1.00e-08	1	rcrd	1	0	1
rcr16w	log	factor   4.5225609E-02  1.00e-08	1	rcrw	1	0	1
rcr17d	log	factor   4.0665133E-02  1.00e-08	1	rcrd	1	0	1
rcr17w	log	factor   6.8496090E-02  1.00e-08	1	rcrw	1	0	1
rcr18d	log	factor   4.7084735E-02  1.00e-08	1	rcrd	1	0	1
rcr18w	log	factor   8.6601132E-02  1.00e-08	1	rcrw	1	0	1
rcr19d	log	factor   4.9240902E-02  1.00e-08	1	rcrd	1	0	1
rcr19w	log	factor   9.2481471E-02  1.00e-08	1	rcrw	1	0	1
rcgd	log	factor   1.6846599E-02  1.00e-08	1	rcgd	1	0	1
rcgw	log	factor   0.4492800      1.00e-08	1	rcgw	1	0	1
tl	log	factor    5.000000      1.00e-08	5	tl	1	0	1
xw	log	factor   0.9523951      1.00e-08	2.1	xw	1	0	1
yw	log	factor   2.5432844E-04  1.00e-08	1	yw	1	0	1
x	log	factor    1.156447      1.00e-08	2.3	x	1	0	1
y	log	factor   2.8469426E-02  1.00e-08	1	y	1	0	1
tlr	log	factor   6.8200000E-02  1.00e-08	10	tlr	1	0	1
tls	log	factor   0.2220000      1.00e-08	30	tls	1	0	1
beta	log	factor   0.5100000      2.00e-01	5.1e-01	beta	1	0	1
* observation groups
q
* observation data
q1                     6111.770       1.872956E-04  q
 q2                     6021.770       1.872956E-04  q
 q3                     5801.770       1.872956E-04  q
 q4                     5361.770       1.872956E-04  q
 q5                     5101.770       1.872956E-04  q
 q6                     5021.770       1.872956E-04  q
 q7                     4831.770       1.872956E-04  q
 q8                     4471.770       1.872956E-04  q
 q9                     4471.770       1.872956E-04  q
 q10                    4411.770       1.872956E-04  q
 q11                    4771.770       1.872956E-04  q
 q12                    4771.770       1.872956E-04  q
 q13                    4751.770       1.872956E-04  q
 q14                    4761.770       1.872956E-04  q
 q15                    4581.770       1.872956E-04  q
 q16                    4541.770       1.872956E-04  q
 q17                    4341.770       1.872956E-04  q
 q18                    4351.770       1.872956E-04  q
 q19                    4711.770       1.872956E-04  q
 q20                    4931.770       1.872956E-04  q
 q21                    5151.770       1.872956E-04  q
 q22                    5171.770       1.872956E-04  q
 q23                    4871.770       1.872956E-04  q
 q24                    4591.770       1.872956E-04  q
 q25                    4401.770       1.872956E-04  q
 q26                    4431.770       1.872956E-04  q
 q27                    4461.770       1.872956E-04  q
 q28                    4341.770       1.872956E-04  q
 q29                    4001.770       1.872956E-04  q
 q30                    3611.770       1.872956E-04  q
 q31                    3611.770       1.872956E-04  q
 q32                    3331.770       1.872956E-04  q
 q33                    3181.770       1.872956E-04  q
 q34                    3281.770       1.872956E-04  q
 q35                    3231.770       1.872956E-04  q
 q36                    3031.770       1.872956E-04  q
 q37                    3031.770       1.872956E-04  q
 q38                    3141.770       1.872956E-04  q
 q39                    3271.770       1.872956E-04  q
 q40                    3151.770       1.872956E-04  q
 q41                    3281.770       1.872956E-04  q
 q42                    3231.770       1.872956E-04  q
 q43                    3251.770       1.872956E-04  q
 q44                    3131.770       1.872956E-04  q
 q45                    3051.770       1.872956E-04  q
 q46                    3221.770       1.872956E-04  q
 q47                    3471.770       1.872956E-04  q
 q48                    3461.770       1.872956E-04  q
 q49                    3661.770       1.872956E-04  q
 q50                    3631.770       1.872956E-04  q
 q51                    3321.770       1.872956E-04  q
 q52                    3301.770       1.872956E-04  q
 q53                    3071.770       1.872956E-04  q
 q54                    3011.770       1.872956E-04  q
 q55                    2871.770       1.872956E-04  q
 q56                    2851.770       1.872956E-04  q
 q57                    2881.770       1.872956E-04  q
 q58                    3661.770       1.872956E-04  q
 q59                    3071.770       1.872956E-04  q
 q60                    2791.770       1.872956E-04  q
 q61                    2591.770       1.872956E-04  q
 q62                    2631.770       1.872956E-04  q
 q63                    2491.770       1.872956E-04  q
 q64                    2451.770       1.872956E-04  q
 q65                    2441.770       1.872956E-04  q
 q66                    2431.770       1.872956E-04  q
 q67                    2391.770       1.872956E-04  q
 q68                    2181.770       1.872956E-04  q
 q69                    2191.770       1.872956E-04  q
 q70                    2421.770       1.872956E-04  q
 q71                    2201.770       1.872956E-04  q
 q72                    2101.770       1.872956E-04  q
 q73                    2121.770       1.872956E-04  q
 q74                    2161.770       1.872956E-04  q
 q75                    2151.770       1.872956E-04  q
 q76                    2151.770       1.872956E-04  q
 q77                    2151.770       1.872956E-04  q
 q78                    2171.770       1.872956E-04  q
 q79                    2231.770       1.872956E-04  q
 q80                    2181.770       1.872956E-04  q
 q81                    2121.770       1.872956E-04  q
 q82                    2051.770       1.872956E-04  q
 q83                    1941.770       1.872956E-04  q
 q84                    1921.770       1.872956E-04  q
 q85                    1911.770       1.872956E-04  q
 q86                    1881.770       1.872956E-04  q
 q87                    1911.770       1.872956E-04  q
 q88                    1781.770       1.872956E-04  q
 q89                    1811.770       1.872956E-04  q
 q90                    1831.770       1.872956E-04  q
 q91                    1811.770       1.872956E-04  q
 q92                    1711.770       1.872956E-04  q
 q93                    1661.770       1.872956E-04  q
 q94                    1701.770       1.872956E-04  q
 q95                    1356.770       1.872956E-04  q
 q96                    1301.770       1.872956E-04  q
 q97                    1043.770       1.872956E-04  q
 q98                    1241.770       1.872956E-04  q
 q99                    1106.770       1.872956E-04  q
 q100                   1138.770       1.872956E-04  q
 q101                   1015.770       1.872956E-04  q
 q102                   993.7700       1.872956E-04  q
 q103                   839.7700       1.872956E-04  q
 q104                   1497.770       1.872956E-04  q
 q105                   3441.770       1.872956E-04  q
 q106                   2791.770       1.872956E-04  q
 q107                   1851.770       1.872956E-04  q
 q108                   2691.770       1.872956E-04  q
 q109                   1651.770       1.872956E-04  q
 q110                   1107.770       1.872956E-04  q
 q111                   1007.770       1.872956E-04  q
 q112                   834.7700       1.872956E-04  q
 q113                   852.7700       1.872956E-04  q
 q114                   763.7700       1.872956E-04  q
 q115                   764.7700       1.872956E-04  q
 q116                   764.7700       1.872956E-04  q
 q117                   721.7700       1.872956E-04  q
 q118                   686.7700       1.872956E-04  q
 q119                   1200.770       1.872956E-04  q
 q120                   1260.770       1.872956E-04  q
 q121                   1222.770       1.872956E-04  q
 q122                   1165.770       1.872956E-04  q
 q123                   1183.770       1.872956E-04  q
 q124                   1911.770       1.872956E-04  q
 q125                   2181.770       1.872956E-04  q
 q126                   1881.770       1.872956E-04  q
 q127                   1911.770       1.872956E-04  q
 q128                   1791.770       1.872956E-04  q
 q129                   1741.770       1.872956E-04  q
 q130                   1731.770       1.872956E-04  q
 q131                   1520.770       1.872956E-04  q
 q132                   1631.770       1.872956E-04  q
 q133                   1651.770       1.872956E-04  q
 q134                   1533.770       1.872956E-04  q
 q135                   1601.770       1.872956E-04  q
 q136                   1841.770       1.872956E-04  q
 q137                   1711.770       1.872956E-04  q
 q138                   1661.770       1.872956E-04  q
 q139                   1631.770       1.872956E-04  q
 q140                   1581.770       1.872956E-04  q
 q141                   1631.770       1.872956E-04  q
 q142                   1581.770       1.872956E-04  q
 q143                   1501.770       1.872956E-04  q
 q144                   1383.770       1.872956E-04  q
 q145                   1405.770       1.872956E-04  q
 q146                   1465.770       1.872956E-04  q
 q147                   1601.770       1.872956E-04  q
 q148                   1477.770       1.872956E-04  q
 q149                   1322.770       1.872956E-04  q
 q150                   1315.770       1.872956E-04  q
 q151                   1419.770       1.872956E-04  q
 q152                   1361.770       1.872956E-04  q
 q153                   1501.770       1.872956E-04  q
 q154                   1510.770       1.872956E-04  q
 q155                   1537.770       1.872956E-04  q
 q156                   1440.770       1.872956E-04  q
 q157                   1347.770       1.872956E-04  q
 q158                   1297.770       1.872956E-04  q
 q159                   1373.770       1.872956E-04  q
 q160                   1377.770       1.872956E-04  q
 q161                   1431.770       1.872956E-04  q
 q162                   1323.770       1.872956E-04  q
 q163                   1398.770       1.872956E-04  q
 q164                   2471.770       1.872956E-04  q
 q165                   7351.770       1.872956E-04  q
 q166                   27171.77       1.872956E-04  q
 q167                   6841.770       1.872956E-04  q
 q168                   4771.770       1.872956E-04  q
 q169                   4051.770       1.872956E-04  q
 q170                   3671.770       1.872956E-04  q
 q171                   3541.770       1.872956E-04  q
 q172                   3351.770       1.872956E-04  q
 q173                   6861.770       1.872956E-04  q
 q174                   6381.770       1.872956E-04  q
 q175                   5311.770       1.872956E-04  q
 q176                   5101.770       1.872956E-04  q
 q177                   4261.770       1.872956E-04  q
 q178                   3741.770       1.872956E-04  q
 q179                   4191.770       1.872956E-04  q
 q180                   4091.770       1.872956E-04  q
 q181                   5951.770       1.872956E-04  q
 q182                   46971.77       1.872956E-04  q
 q183                   42371.77       1.872956E-04  q
 q184                   19371.77       1.872956E-04  q
 q185                   13671.77       1.872956E-04  q
 q186                   12271.77       1.872956E-04  q
 q187                   11471.77       1.872956E-04  q
 q188                   10001.77       1.872956E-04  q
 q189                   9121.770       1.872956E-04  q
 q190                   8541.770       1.872956E-04  q
 q191                   8031.770       1.872956E-04  q
 q192                   7301.770       1.872956E-04  q
 q193                   6601.770       1.872956E-04  q
 q194                   6301.770       1.872956E-04  q
 q195                   6241.770       1.872956E-04  q
 q196                   6071.770       1.872956E-04  q
 q197                   5921.770       1.872956E-04  q
 q198                   6441.770       1.872956E-04  q
 q199                   7011.770       1.872956E-04  q
 q200                   7031.770       1.872956E-04  q
 q201                   7381.770       1.872956E-04  q
 q202                   8051.770       1.872956E-04  q
 q203                   8981.770       1.872956E-04  q
 q204                   7671.770       1.872956E-04  q
 q205                   7501.770       1.872956E-04  q
 q206                   7811.770       1.872956E-04  q
 q207                   7521.770       1.872956E-04  q
 q208                   8521.770       1.872956E-04  q
 q209                   9261.770       1.872956E-04  q
 q210                   9451.770       1.872956E-04  q
 q211                   9511.770       1.872956E-04  q
 q212                   9361.770       1.872956E-04  q
 q213                   9731.770       1.872956E-04  q
 q214                   9571.770       1.872956E-04  q
 q215                   9201.770       1.872956E-04  q
 q216                   9611.770       1.872956E-04  q
 q217                   9751.770       1.872956E-04  q
 q218                   8851.770       1.872956E-04  q
 q219                   8291.770       1.872956E-04  q
 q220                   8611.770       1.872956E-04  q
 q221                   9561.770       1.872956E-04  q
 q222                   9971.770       1.872956E-04  q
 q223                   9861.770       1.872956E-04  q
 q224                   9791.770       1.872956E-04  q
 q225                   9721.770       1.872956E-04  q
 q226                   8761.770       1.872956E-04  q
 q227                   8361.770       1.872956E-04  q
 q228                   7441.770       1.872956E-04  q
 q229                   7021.770       1.872956E-04  q
 q230                   6981.770       1.872956E-04  q
 q231                   8361.770       1.872956E-04  q
 q232                   9321.770       1.872956E-04  q
 q233                   11771.77       1.872956E-04  q
 q234                   13371.77       1.872956E-04  q
 q235                   10671.77       1.872956E-04  q
 q236                   10051.77       1.872956E-04  q
 q237                   9001.770       1.872956E-04  q
 q238                   8351.770       1.872956E-04  q
 q239                   7881.770       1.872956E-04  q
 q240                   7331.770       1.872956E-04  q
 q241                   7001.770       1.872956E-04  q
 q242                   6641.770       1.872956E-04  q
 q243                   6421.770       1.872956E-04  q
 q244                   7301.770       1.872956E-04  q
 q245                   8851.770       1.872956E-04  q
 q246                   9481.770       1.872956E-04  q
 q247                   10371.77       1.872956E-04  q
 q248                   11071.77       1.872956E-04  q
 q249                   11171.77       1.872956E-04  q
 q250                   10361.77       1.872956E-04  q
 q251                   8621.770       1.872956E-04  q
 q252                   7811.770       1.872956E-04  q
 q253                   7321.770       1.872956E-04  q
 q254                   7531.770       1.872956E-04  q
 q255                   7361.770       1.872956E-04  q
 q256                   7631.770       1.872956E-04  q
 q257                   7781.770       1.872956E-04  q
 q258                   7261.770       1.872956E-04  q
 q259                   7651.770       1.872956E-04  q
 q260                   9331.770       1.872956E-04  q
 q261                   9691.770       1.872956E-04  q
 q262                   10561.77       1.872956E-04  q
 q263                   11371.77       1.872956E-04  q
 q264                   11371.77       1.872956E-04  q
 q265                   10181.77       1.872956E-04  q
 q266                   10771.77       1.872956E-04  q
 q267                   12571.77       1.872956E-04  q
 q268                   13371.77       1.872956E-04  q
 q269                   14371.77       1.872956E-04  q
 q270                   16071.77       1.872956E-04  q
 q271                   18171.77       1.872956E-04  q
 q272                   18571.77       1.872956E-04  q
 q273                   19171.77       1.872956E-04  q
 q274                   20071.77       1.872956E-04  q
 q275                   21371.77       1.872956E-04  q
 q276                   19671.77       1.872956E-04  q
 q277                   17271.77       1.872956E-04  q
 q278                   17871.77       1.872956E-04  q
 q279                   18571.77       1.872956E-04  q
 q280                   20871.77       1.872956E-04  q
 q281                   21971.77       1.872956E-04  q
 q282                   20871.77       1.872956E-04  q
 q283                   18971.77       1.872956E-04  q
 q284                   18271.77       1.872956E-04  q
 q285                   18871.77       1.872956E-04  q
 q286                   18871.77       1.872956E-04  q
 q287                   18771.77       1.872956E-04  q
 q288                   19971.77       1.872956E-04  q
 q289                   19771.77       1.872956E-04  q
 q290                   19371.77       1.872956E-04  q
 q291                   20271.77       1.872956E-04  q
 q292                   21471.77       1.872956E-04  q
 q293                   22671.77       1.872956E-04  q
 q294                   22971.77       1.872956E-04  q
 q295                   23571.77       1.872956E-04  q
 q296                   21971.77       1.872956E-04  q
 q297                   20471.77       1.872956E-04  q
 q298                   18271.77       1.872956E-04  q
 q299                   14871.77       1.872956E-04  q
 q300                   13371.77       1.872956E-04  q
 q301                   14971.77       1.872956E-04  q
 q302                   16871.77       1.872956E-04  q
 q303                   19071.77       1.872956E-04  q
 q304                   19471.77       1.872956E-04  q
 q305                   16471.77       1.872956E-04  q
 q306                   13971.77       1.872956E-04  q
 q307                   13171.77       1.872956E-04  q
 q308                   12871.77       1.872956E-04  q
 q309                   12171.77       1.872956E-04  q
 q310                   10671.77       1.872956E-04  q
 q311                   9821.770       1.872956E-04  q
 q312                   10671.77       1.872956E-04  q
 q313                   11471.77       1.872956E-04  q
 q314                   9761.770       1.872956E-04  q
 q315                   9411.770       1.872956E-04  q
 q316                   9801.770       1.872956E-04  q
 q317                   9811.770       1.872956E-04  q
 q318                   9101.770       1.872956E-04  q
 q319                   9301.770       1.872956E-04  q
 q320                   10771.77       1.872956E-04  q
 q321                   12971.77       1.872956E-04  q
 q322                   15971.77       1.872956E-04  q
 q323                   19371.77       1.872956E-04  q
 q324                   19571.77       1.872956E-04  q
 q325                   20071.77       1.872956E-04  q
 q326                   19471.77       1.872956E-04  q
 q327                   17571.77       1.872956E-04  q
 q328                   17971.77       1.872956E-04  q
 q329                   18171.77       1.872956E-04  q
 q330                   19571.77       1.872956E-04  q
 q331                   20971.77       1.872956E-04  q
 q332                   21371.77       1.872956E-04  q
 q333                   21871.77       1.872956E-04  q
 q334                   21371.77       1.872956E-04  q
 q335                   19871.77       1.872956E-04  q
 q336                   19471.77       1.872956E-04  q
 q337                   18971.77       1.872956E-04  q
 q338                   17671.77       1.872956E-04  q
 q339                   17571.77       1.872956E-04  q
 q340                   19371.77       1.872956E-04  q
 q341                   20671.77       1.872956E-04  q
 q342                   20271.77       1.872956E-04  q
 q343                   18871.77       1.872956E-04  q
 q344                   19371.77       1.872956E-04  q
 q345                   20171.77       1.872956E-04  q
 q346                   19371.77       1.872956E-04  q
 q347                   19071.77       1.872956E-04  q
 q348                   18371.77       1.872956E-04  q
 q349                   16771.77       1.872956E-04  q
 q350                   14771.77       1.872956E-04  q
 q351                   14171.77       1.872956E-04  q
 q352                   15671.77       1.872956E-04  q
 q353                   17371.77       1.872956E-04  q
 q354                   18571.77       1.872956E-04  q
 q355                   17371.77       1.872956E-04  q
 q356                   15571.77       1.872956E-04  q
 q357                   13971.77       1.872956E-04  q
 q358                   12671.77       1.872956E-04  q
 q359                   12471.77       1.872956E-04  q
 q360                   11971.77       1.872956E-04  q
 q361                   10481.77       1.872956E-04  q
 q362                   9001.770       1.872956E-04  q
 q363                   8551.770       1.872956E-04  q
 q364                   8381.770       1.872956E-04  q
 q365                   8671.770       1.872956E-04  q
 q366                   9091.770       1.872956E-04  q
 q367                   9391.770       1.872956E-04  q
 q368                   10671.77       1.872956E-04  q
 q369                   10771.77       1.872956E-04  q
 q370                   10231.77       1.872956E-04  q
 q371                   10441.77       1.872956E-04  q
 q372                   11271.77       1.872956E-04  q
 q373                   10571.77       1.872956E-04  q
 q374                   9551.770       1.872956E-04  q
 q375                   8411.770       1.872956E-04  q
 q376                   7381.770       1.872956E-04  q
 q377                   7111.770       1.872956E-04  q
 q378                   7801.770       1.872956E-04  q
 q379                   8031.770       1.872956E-04  q
 q380                   7741.770       1.872956E-04  q
 q381                   8361.770       1.872956E-04  q
 q382                   8541.770       1.872956E-04  q
 q383                   7951.770       1.872956E-04  q
 q384                   7351.770       1.872956E-04  q
 q385                   7271.770       1.872956E-04  q
 q386                   7521.770       1.872956E-04  q
 q387                   7371.770       1.872956E-04  q
 q388                   6841.770       1.872956E-04  q
 q389                   6581.770       1.872956E-04  q
 q390                   6071.770       1.872956E-04  q
 q391                   5891.770       1.872956E-04  q
 q392                   5801.770       1.872956E-04  q
 q393                   5481.770       1.872956E-04  q
 q394                   5321.770       1.872956E-04  q
 q395                   4951.770       1.872956E-04  q
 q396                   4851.770       1.872956E-04  q
 q397                   4721.770       1.872956E-04  q
 q398                   4961.770       1.872956E-04  q
 q399                   5151.770       1.872956E-04  q
 q400                   5111.770       1.872956E-04  q
 q401                   5261.770       1.872956E-04  q
 q402                   4961.770       1.872956E-04  q
 q403                   4861.770       1.872956E-04  q
 q404                   5151.770       1.872956E-04  q
 q405                   5291.770       1.872956E-04  q
 q406                   5171.770       1.872956E-04  q
 q407                   5041.770       1.872956E-04  q
 q408                   4811.770       1.872956E-04  q
 q409                   4651.770       1.872956E-04  q
 q410                   4491.770       1.872956E-04  q
 q411                   4521.770       1.872956E-04  q
 q412                   4091.770       1.872956E-04  q
 q413                   4061.770       1.872956E-04  q
 q414                   3801.770       1.872956E-04  q
 q415                   3781.770       1.872956E-04  q
 q416                   4001.770       1.872956E-04  q
 q417                   4401.770       1.872956E-04  q
 q418                   4331.770       1.872956E-04  q
 q419                   4131.770       1.872956E-04  q
 q420                   3591.770       1.872956E-04  q
 q421                   3241.770       1.872956E-04  q
 q422                   3061.770       1.872956E-04  q
 q423                   3011.770       1.872956E-04  q