pcf
* control data
restart  estimation
86  7067 18     0     1
2    2 single point   1   0   0
10.0  -3  0.3  0.03  10  lamforgive derforgive
10.0  10.0  0.001
0.1  noaui
-2  0.001  4  4  0.005  4
0 0 0  PARSAVEITN
* singular value decomposition
1
86 5E-07
0
* parameter groups
ddsd         relative 0.025  0.0  switch  2.0 parabolic 1.0e-4 0.5 smaller
ddsw         relative 0.025  0.0  switch  2.0 parabolic 1.0e-4 0.5 smaller
ddgd         relative 0.025  0.0  switch  2.0 parabolic 1.0e-4 0.5 smaller
ddgw         relative 0.025  0.0  switch  2.0 parabolic 1.0e-4 0.5 smaller
rcsd         relative 0.025  0.0  switch  2.0 parabolic 1.0e-4 0.5 smaller
rcsw         relative 0.025  0.0  switch  2.0 parabolic 1.0e-4 0.5 smaller
rcrd         relative 0.025  0.0  switch  2.0 parabolic 1.0e-4 0.5 smaller
rcrw         relative 0.025  0.0  switch  2.0 parabolic 1.0e-4 0.5 smaller
rcgd         relative 0.025  0.0  switch  2.0 parabolic 1.0e-4 0.5 smaller
rcgw         relative 0.025  0.0  switch  2.0 parabolic 1.0e-4 0.5 smaller
tl           relative 0.025  0.0  switch  2.0 parabolic 1.0e-4 0.5 smaller
xw           relative 0.25  0.0  switch  2.0 parabolic 1.0e-4 0.5 smaller
yw           relative 0.25  0.0  switch  2.0 parabolic 1.0e-4 0.5 smaller
x            relative 0.25  0.0  switch  2.0 parabolic 1.0e-4 0.5 smaller
y            relative 0.25  0.0  switch  2.0 parabolic 1.0e-4 0.5 smaller
tlr			 relative 0.5  0.0  switch  2.0 parabolic 1.0e-4 0.5 smaller
tls			 relative 0.5  0.0  switch  2.0 parabolic 1.0e-4 0.5 smaller
beta			 relative 0.025  0.0  switch  2.0 parabolic 1.0e-4 0.5 smaller
* parameter data
ddsd        log	factor   0.6322900      1.00e-08   2.1 ddsd              1.0000        0.0000      1
ddsw        log	factor   0.7686200      1.00e-08   2.1 ddsw              1.0000        0.0000      1
ddgd        log	factor   5.7532549E-02  1.00e-08   1.1 ddgd              1.0000        0.0000      1
ddgw        log	factor   0.4920776      1.00e-08   1.1 ddgw              1.0000        0.0000      1
rcs1d	log	factor   0.3630969      1.00e-08	1	rcsd	1.00e+00	0	1
rcs1w	log	factor   0.3787928      1.00e-08	1	rcsw	1.00e+00	0	1
rcs2d	log	factor   0.2425564      1.00e-08	1	rcsd	1.00e+00	0	1
rcs2w	log	factor   0.2518448      1.00e-08	1	rcsw	1.00e+00	0	1
rcs3d	log	factor   0.1037987      1.00e-08	1	rcsd	1.00e+00	0	1
rcs3w	log	factor   9.9956572E-02  1.00e-08	1	rcsw	1.00e+00	0	1
rcs4d	log	factor   3.2432488E-02  1.00e-08	1	rcsd	1.00e+00	0	1
rcs4w	log	factor   4.4901622E-02  1.00e-08	1	rcsw	1.00e+00	0	1
rcs5d	log	factor   1.8619877E-02  1.00e-08	1	rcsd	1.00e+00	0	1
rcs5w	log	factor   3.3384774E-02  1.00e-08	1	rcsw	1.00e+00	0	1
rcs6d	log	factor   1.1990383E-02  1.00e-08	1	rcsd	1.00e+00	0	1
rcs6w	log	factor    1.000000      1.00e-08	1	rcsw	1.00e+00	0	1
rcs7d	log	factor   1.2421765E-02  1.00e-08	1	rcsd	1.00e+00	0	1
rcs7w	log	factor   0.6126054      1.00e-08	1	rcsw	1.00e+00	0	1
rcs8d	log	factor   1.0511639E-02  1.00e-08	1	rcsd	1.00e+00	0	1
rcs8w	log	factor   1.6976391E-02  1.00e-08	1	rcsw	1.00e+00	0	1
rcs9d	log	factor   1.1461998E-02  1.00e-08	1	rcsd	1.00e+00	0	1
rcs9w	log	factor    1.000000      1.00e-08	1	rcsw	1.00e+00	0	1
rcs10d	log	factor    1.000000      1.00e-08	1	rcsd	1.00e+00	0	1
rcs10w	log	factor   9.2473897E-03  1.00e-08	1	rcsw	1.00e+00	0	1
rcs11d	log	factor   0.6763943      1.00e-08	1	rcsd	1.00e+00	0	1
rcs11w	log	factor    1.000000      1.00e-08	1	rcsw	1.00e+00	0	1
rcs12d	log	factor    1.000000      1.00e-08	1	rcsd	1.00e+00	0	1
rcs12w	log	factor    1.000000      1.00e-08	1	rcsw	1.00e+00	0	1
rcs13d	log	factor    1.000000      1.00e-08	1	rcsd	1.00e+00	0	1
rcs13w	log	factor    1.000000      1.00e-08	1	rcsw	1.00e+00	0	1
rcs14d	log	factor    1.000000      1.00e-08	1	rcsd	1.00e+00	0	1
rcs14w	log	factor    1.000000      1.00e-08	1	rcsw	1.00e+00	0	1
rcs15d	log	factor    1.000000      1.00e-08	1	rcsd	1.00e+00	0	1
rcs15w	log	factor    1.000000      1.00e-08	1	rcsw	1.00e+00	0	1
rcs16d	log	factor    1.000000      1.00e-08	1	rcsd	1.00e+00	0	1
rcs16w	log	factor    1.000000      1.00e-08	1	rcsw	1.00e+00	0	1
rcs17d	log	factor    1.000000      1.00e-08	1	rcsd	1.00e+00	0	1
rcs17w	log	factor    1.000000      1.00e-08	1	rcsw	1.00e+00	0	1
rcs18d	log	factor   0.5807261      1.00e-08	1	rcsd	1.00e+00	0	1
rcs18w	log	factor    1.000000      1.00e-08	1	rcsw	1.00e+00	0	1
rcr1d	log	factor   3.6243441E-02  1.00e-08	1	rcrd	1.00e+00	0	1
rcr1w	log	factor   0.9309244      1.00e-08	1	rcrw	1.00e+00	0	1
rcr2d	log	factor   1.0629561E-02  1.00e-08	1	rcrd	1.00e+00	0	1
rcr2w	log	factor   0.6139512      1.00e-08	1	rcrw	1.00e+00	0	1
rcr3d	log	factor   6.5163714E-03  1.00e-08	1	rcrd	1.00e+00	0	1
rcr3w	log	factor   0.3741275      1.00e-08	1	rcrw	1.00e+00	0	1
rcr4d	log	factor   5.4548176E-03  1.00e-08	1	rcrd	1.00e+00	0	1
rcr4w	log	factor   0.6121920      1.00e-08	1	rcrw	1.00e+00	0	1
rcr5d	log	factor   4.8877841E-03  1.00e-08	1	rcrd	1.00e+00	0	1
rcr5w	log	factor   0.3239824      1.00e-08	1	rcrw	1.00e+00	0	1
rcr6d	log	factor   4.2120585E-03  1.00e-08	1	rcrd	1.00e+00	0	1
rcr6w	log	factor   3.2584128E-02  1.00e-08	1	rcrw	1.00e+00	0	1
rcr7d	log	factor   2.9752034E-03  1.00e-08	1	rcrd	1.00e+00	0	1
rcr7w	log	factor   2.4023212E-02  1.00e-08	1	rcrw	1.00e+00	0	1
rcr8d	log	factor   0.7459093      1.00e-08	1	rcrd	1.00e+00	0	1
rcr8w	log	factor   1.6534537E-02  1.00e-08	1	rcrw	1.00e+00	0	1
rcr9d	log	factor   4.2137519E-03  1.00e-08	1	rcrd	1.00e+00	0	1
rcr9w	log	factor   1.4172315E-02  1.00e-08	1	rcrw	1.00e+00	0	1
rcr10d	log	factor   5.0467887E-03  1.00e-08	1	rcrd	1.00e+00	0	1
rcr10w	log	factor   1.0110871E-02  1.00e-08	1	rcrw	1.00e+00	0	1
rcr11d	log	factor   6.8738810E-03  1.00e-08	1	rcrd	1.00e+00	0	1
rcr11w	log	factor   1.1383432E-02  1.00e-08	1	rcrw	1.00e+00	0	1
rcr12d	log	factor   1.9562436E-02  1.00e-08	1	rcrd	1.00e+00	0	1
rcr12w	log	factor   1.5769510E-02  1.00e-08	1	rcrw	1.00e+00	0	1
rcr13d	log	factor   0.7335290      1.00e-08	1	rcrd	1.00e+00	0	1
rcr13w	log	factor   2.2708330E-02  1.00e-08	1	rcrw	1.00e+00	0	1
rcr14d	log	factor    1.000000      1.00e-08	1	rcrd	1.00e+00	0	1
rcr14w	log	factor   3.4781678E-02  1.00e-08	1	rcrw	1.00e+00	0	1
rcr15d	log	factor   0.4151433      1.00e-08	1	rcrd	1.00e+00	0	1
rcr15w	log	factor   5.0037353E-02  1.00e-08	1	rcrw	1.00e+00	0	1
rcr16d	log	factor   0.2042494      1.00e-08	1	rcrd	1.00e+00	0	1
rcr16w	log	factor   9.0012862E-02  1.00e-08	1	rcrw	1.00e+00	0	1
rcr17d	log	factor   0.2211335      1.00e-08	1	rcrd	1.00e+00	0	1
rcr17w	log	factor   0.2576437      1.00e-08	1	rcrw	1.00e+00	0	1
rcr18d	log	factor   0.4160203      1.00e-08	1	rcrd	1.00e+00	0	1
rcr18w	log	factor   0.5391277      1.00e-08	1	rcrw	1.00e+00	0	1
rcgd        log	factor   2.0735371E-02  1.00e-08    2.59 rcgd            1.0000        0.0000      1
rcgw        log	factor   0.3113871      1.00e-08    2.59 rcgw            1.0000        0.0000      1
tl          log	factor    2.863302      1.00e-08    5 tl              1.0000        0.0000      1
xw          log	factor    1.097229      1.00e-08   2.1 xw               1.0000        0.0000      1
yw          log	factor   9.0362553E-03  1.00e-08    1 yw               1.0000        0.0000      1
x           log	factor    1.534254      1.00e-08   2.3 x               1.0000        0.0000      1
y           log	factor   9.9307619E-02  1.00e-08    1 y               1.0000        0.0000      1
tlr			log	factor   0.4087000      1.00e-08    10 tlr               1.0000        0.0000      1
tls			log	factor   0.6509000      1.00e-08    30 tls               1.0000        0.0000      1
beta	log	factor   0.3491000      2.00e-01	5.1e-01	beta	1	0	1
* observation groups
q
* observation data
 q5                     73400.00       2.069734E-05  q
 q6                     72800.00       2.069734E-05  q
 q7                     70200.00       2.069734E-05  q
 q8                     64200.00       2.069734E-05  q
 q9                     57400.00       2.069734E-05  q
 q10                    58300.00       2.069734E-05  q
 q11                    63500.00       2.069734E-05  q
 q12                    65400.00       2.069734E-05  q
 q13                    64300.00       2.069734E-05  q
 q14                    61800.00       2.069734E-05  q
 q15                    58000.00       2.069734E-05  q
 q16                    49500.00       2.069734E-05  q
 q17                    50500.00       2.069734E-05  q
 q18                    53800.00       2.069734E-05  q
 q19                    58600.00       2.069734E-05  q
 q20                    61200.00       2.069734E-05  q
 q21                    60300.00       2.069734E-05  q
 q22                    58300.00       2.069734E-05  q
 q23                    55400.00       2.069734E-05  q
 q24                    52900.00       2.069734E-05  q
 q25                    54200.00       2.069734E-05  q
 q26                    56000.00       2.069734E-05  q
 q27                    59300.00       2.069734E-05  q
 q28                    58600.00       2.069734E-05  q
 q29                    51600.00       2.069734E-05  q
 q30                    47900.00       2.069734E-05  q
 q31                    49900.00       2.069734E-05  q
 q32                    43400.00       2.069734E-05  q
 q33                    37500.00       2.069734E-05  q
 q34                    39500.00       2.069734E-05  q
 q35                    44600.00       2.069734E-05  q
 q36                    43900.00       2.069734E-05  q
 q37                    39400.00       2.069734E-05  q
 q38                    41000.00       2.069734E-05  q
 q39                    40800.00       2.069734E-05  q
 q40                    35400.00       2.069734E-05  q
 q41                    36800.00       2.069734E-05  q
 q42                    35900.00       2.069734E-05  q
 q43                    96000.00       2.069734E-05  q
 q44                    48200.00       2.069734E-05  q
 q45                    40600.00       2.069734E-05  q
 q46                    39100.00       2.069734E-05  q
 q47                    39200.00       2.069734E-05  q
 q48                    41200.00       2.069734E-05  q
 q49                    42200.00       2.069734E-05  q
 q50                    41900.00       2.069734E-05  q
 q51                    42100.00       2.069734E-05  q
 q52                    41600.00       2.069734E-05  q
 q53                    43500.00       2.069734E-05  q
 q54                    43600.00       2.069734E-05  q
 q55                    44500.00       2.069734E-05  q
 q56                    45300.00       2.069734E-05  q
 q57                    42200.00       2.069734E-05  q
 q58                    38500.00       2.069734E-05  q
 q59                    35700.00       2.069734E-05  q
 q60                    34300.00       2.069734E-05  q
 q61                    34300.00       2.069734E-05  q
 q62                    33300.00       2.069734E-05  q
 q63                    32700.00       2.069734E-05  q
 q64                    32600.00       2.069734E-05  q
 q65                    32600.00       2.069734E-05  q
 q66                    33900.00       2.069734E-05  q
 q67                    34000.00       2.069734E-05  q
 q68                    35300.00       2.069734E-05  q
 q69                    34600.00       2.069734E-05  q
 q70                    33200.00       2.069734E-05  q
 q71                    33300.00       2.069734E-05  q
 q72                    32300.00       2.069734E-05  q
 q73                    30900.00       2.069734E-05  q
 q74                    30100.00       2.069734E-05  q
 q75                    28700.00       2.069734E-05  q
 q76                    28300.00       2.069734E-05  q
 q77                    27100.00       2.069734E-05  q
 q78                    27600.00       2.069734E-05  q
 q79                    27600.00       2.069734E-05  q
 q80                    25400.00       2.069734E-05  q
 q81                    22500.00       2.069734E-05  q
 q82                    22400.00       2.069734E-05  q
 q83                    21600.00       2.069734E-05  q
 q84                    22500.00       2.069734E-05  q
 q85                    24500.00       2.069734E-05  q
 q86                    24800.00       2.069734E-05  q
 q87                    22300.00       2.069734E-05  q
 q88                    21600.00       2.069734E-05  q
 q89                    21700.00       2.069734E-05  q
 q90                    21600.00       2.069734E-05  q
 q91                    20300.00       2.069734E-05  q
 q92                    20200.00       2.069734E-05  q
 q93                    21100.00       2.069734E-05  q
 q94                    22200.00       2.069734E-05  q
 q95                    20400.00       2.069734E-05  q
 q96                    19500.00       2.069734E-05  q
 q97                    19100.00       2.069734E-05  q
 q98                    19000.00       2.069734E-05  q
 q99                    18400.00       2.069734E-05  q
 q100                   18000.00       2.069734E-05  q
 q101                   18200.00       2.069734E-05  q
 q102                   18200.00       2.069734E-05  q
 q103                   18800.00       2.069734E-05  q
 q104                   19900.00       2.069734E-05  q
 q105                   29400.00       2.069734E-05  q
 q106                   25900.00       2.069734E-05  q
 q107                   20400.00       2.069734E-05  q
 q108                   19200.00       2.069734E-05  q
 q109                   18200.00       2.069734E-05  q
 q110                   17600.00       2.069734E-05  q
 q111                   16800.00       2.069734E-05  q
 q112                   16600.00       2.069734E-05  q
 q113                   16600.00       2.069734E-05  q
 q114                   16200.00       2.069734E-05  q
 q115                   15800.00       2.069734E-05  q
 q116                   15400.00       2.069734E-05  q
 q117                   15300.00       2.069734E-05  q
 q118                   15100.00       2.069734E-05  q
 q119                   14300.00       2.069734E-05  q
 q120                   14200.00       2.069734E-05  q
 q121                   14300.00       2.069734E-05  q
 q122                   14400.00       2.069734E-05  q
 q123                   14000.00       2.069734E-05  q
 q124                   13700.00       2.069734E-05  q
 q125                   12800.00       2.069734E-05  q
 q126                   12500.00       2.069734E-05  q
 q127                   12300.00       2.069734E-05  q
 q128                   12000.00       2.069734E-05  q
 q129                   11700.00       2.069734E-05  q
 q130                   11700.00       2.069734E-05  q
 q131                   11900.00       2.069734E-05  q
 q132                   11800.00       2.069734E-05  q
 q133                   11800.00       2.069734E-05  q
 q134                   11700.00       2.069734E-05  q
 q135                   11600.00       2.069734E-05  q
 q136                   12700.00       2.069734E-05  q
 q137                   11800.00       2.069734E-05  q
 q138                   11300.00       2.069734E-05  q
 q139                   11200.00       2.069734E-05  q
 q140                   11000.00       2.069734E-05  q
 q141                   11000.00       2.069734E-05  q
 q142                   10800.00       2.069734E-05  q
 q143                   10800.00       2.069734E-05  q
 q144                   10600.00       2.069734E-05  q
 q145                   10700.00       2.069734E-05  q
 q146                   10900.00       2.069734E-05  q
 q147                   10400.00       2.069734E-05  q
 q148                   10600.00       2.069734E-05  q
 q149                   10400.00       2.069734E-05  q
 q150                   10800.00       2.069734E-05  q
 q151                   10600.00       2.069734E-05  q
 q152                   10400.00       2.069734E-05  q
 q153                   10200.00       2.069734E-05  q
 q154                   9860.000       2.069734E-05  q
 q155                   9520.000       2.069734E-05  q
 q157                   9700.000       2.069734E-05  q
 q158                   9700.000       2.069734E-05  q
 q161                   9080.000       2.069734E-05  q
 q162                   9980.000       2.069734E-05  q
 q163                   9640.000       2.069734E-05  q
 q164                   25700.00       2.069734E-05  q
 q167                   68900.00       2.069734E-05  q
 q168                   57100.00       2.069734E-05  q
 q169                   45500.00       2.069734E-05  q
 q170                   37600.00       2.069734E-05  q
 q171                   33600.00       2.069734E-05  q
 q172                   31900.00       2.069734E-05  q
 q173                   85600.00       2.069734E-05  q
 q174                   92700.00       2.069734E-05  q
 q175                   75900.00       2.069734E-05  q
 q176                   90100.00       2.069734E-05  q
 q177                   78100.00       2.069734E-05  q
 q178                   68000.00       2.069734E-05  q
 q180                   84000.00       2.069734E-05  q
 q181                   84100.00       2.069734E-05  q
 q183                   4841.000       2.069734E-05  q
 q184                   4841.000       2.069734E-05  q
 q187                   55600.00       2.069734E-05  q
 q188                   55800.00       2.069734E-05  q
 q191                   56500.00       2.069734E-05  q
 q192                   52400.00       2.069734E-05  q
 q193                   31400.00       2.069734E-05  q
 q194                   28200.00       2.069734E-05  q
 q195                   28400.00       2.069734E-05  q
 q196                   14700.00       2.069734E-05  q
 q197                   14000.00       2.069734E-05  q
 q198                   13300.00       2.069734E-05  q
 q199                   13800.00       2.069734E-05  q
 q200                   12800.00       2.069734E-05  q
 q201                   12200.00       2.069734E-05  q
 q202                   17800.00       2.069734E-05  q
 q203                   21700.00       2.069734E-05  q
 q204                   15600.00       2.069734E-05  q
 q205                   13400.00       2.069734E-05  q
 q206                   11800.00       2.069734E-05  q
 q207                   10100.00       2.069734E-05  q
 q208                   13000.00       2.069734E-05  q
 q209                   11700.00       2.069734E-05  q
 q210                   39700.00       2.069734E-05  q
 q211                   39400.00       2.069734E-05  q
 q212                   38600.00       2.069734E-05  q
 q213                   38900.00       2.069734E-05  q
 q214                   38200.00       2.069734E-05  q
 q215                   37100.00       2.069734E-05  q
 q216                   36400.00       2.069734E-05  q
 q217                   36400.00       2.069734E-05  q
 q218                   35100.00       2.069734E-05  q
 q219                   33600.00       2.069734E-05  q
 q220                   34100.00       2.069734E-05  q
 q221                   34900.00       2.069734E-05  q
 q222                   34300.00       2.069734E-05  q
 q223                   34600.00       2.069734E-05  q
 q224                   34600.00       2.069734E-05  q
 q225                   35000.00       2.069734E-05  q
 q226                   34100.00       2.069734E-05  q
 q227                   33300.00       2.069734E-05  q
 q228                   31700.00       2.069734E-05  q
 q229                   31100.00       2.069734E-05  q
 q230                   30600.00       2.069734E-05  q
 q231                   32900.00       2.069734E-05  q
 q232                   34800.00       2.069734E-05  q
 q233                   34500.00       2.069734E-05  q
 q234                   38600.00       2.069734E-05  q
 q235                   36500.00       2.069734E-05  q
 q236                   36000.00       2.069734E-05  q
 q237                   33800.00       2.069734E-05  q
 q238                   32500.00       2.069734E-05  q
 q239                   31400.00       2.069734E-05  q
 q240                   30600.00       2.069734E-05  q
 q243                   30300.00       2.069734E-05  q
 q244                   28900.00       2.069734E-05  q
 q245                   30100.00       2.069734E-05  q
 q246                   31000.00       2.069734E-05  q
 q247                   32200.00       2.069734E-05  q
 q248                   33000.00       2.069734E-05  q
 q249                   34300.00       2.069734E-05  q
 q250                   34600.00       2.069734E-05  q
 q251                   32000.00       2.069734E-05  q
 q252                   44300.00       2.069734E-05  q
 q253                   75700.00       2.069734E-05  q
 q254                   84400.00       2.069734E-05  q
 q255                   62300.00       2.069734E-05  q
 q256                   58000.00       2.069734E-05  q
 q257                   59800.00       2.069734E-05  q
 q258                   58400.00       2.069734E-05  q
 q259                   56300.00       2.069734E-05  q
 q260                   55000.00       2.069734E-05  q
 q261                   63800.00       2.069734E-05  q
 q262                   71900.00       2.069734E-05  q
 q263                   69200.00       2.069734E-05  q
 q264                   75900.00       2.069734E-05  q
 q265                   64500.00       2.069734E-05  q
 q266                   57100.00       2.069734E-05  q
 q267                   53600.00       2.069734E-05  q
 q268                   52600.00       2.069734E-05  q
 q269                   51500.00       2.069734E-05  q
 q270                   55000.00       2.069734E-05  q
 q271                   62200.00       2.069734E-05  q
 q272                   67800.00       2.069734E-05  q
 q273                   68300.00       2.069734E-05  q
 q274                   67000.00       2.069734E-05  q
 q275                   67500.00       2.069734E-05  q
 q276                   67300.00       2.069734E-05  q
 q277                   59300.00       2.069734E-05  q
 q278                   57200.00       2.069734E-05  q
 q279                   56900.00       2.069734E-05  q
 q280                   59600.00       2.069734E-05  q
 q281                   62000.00       2.069734E-05  q
 q282                   59400.00       2.069734E-05  q
 q283                   54800.00       2.069734E-05  q
 q284                   56000.00       2.069734E-05  q
 q285                   55800.00       2.069734E-05  q
 q286                   53400.00       2.069734E-05  q
 q287                   55700.00       2.069734E-05  q
 q288                   60500.00       2.069734E-05  q
 q289                   61500.00       2.069734E-05  q
 q290                   63900.00       2.069734E-05  q
 q291                   68200.00       2.069734E-05  q
 q292                   70900.00       2.069734E-05  q
 q293                   72800.00       2.069734E-05  q
 q294                   68000.00       2.069734E-05  q
 q295                   75200.00       2.069734E-05  q
 q296                   77500.00       2.069734E-05  q
 q297                   77700.00       2.069734E-05  q
 q298                   73400.00       2.069734E-05  q
 q299                   69600.00       2.069734E-05  q
 q300                   71600.00       2.069734E-05  q
 q301                   78700.00       2.069734E-05  q
 q302                   85500.00       2.069734E-05  q
 q303                   89700.00       2.069734E-05  q
 q304                   83400.00       2.069734E-05  q
 q305                   77500.00       2.069734E-05  q
 q306                   75100.00       2.069734E-05  q
 q307                   78300.00       2.069734E-05  q
 q308                   74800.00       2.069734E-05  q
 q309                   70700.00       2.069734E-05  q
 q310                   65900.00       2.069734E-05  q
 q311                   65700.00       2.069734E-05  q
 q312                   70200.00       2.069734E-05  q
 q313                   70500.00       2.069734E-05  q
 q314                   63200.00       2.069734E-05  q
 q315                   60300.00       2.069734E-05  q
 q316                   59800.00       2.069734E-05  q
 q317                   59300.00       2.069734E-05  q
 q318                   59000.00       2.069734E-05  q
 q319                   58000.00       2.069734E-05  q
 q320                   60000.00       2.069734E-05  q
 q321                   65400.00       2.069734E-05  q
 q322                   73900.00       2.069734E-05  q
 q323                   85000.00       2.069734E-05  q
 q324                   88100.00       2.069734E-05  q
 q325                   101000.0       2.069734E-05  q
 q326                   103000.0       2.069734E-05  q
 q327                   102000.0       2.069734E-05  q
 q328                   105000.0       2.069734E-05  q
 q329                   106000.0       2.069734E-05  q
 q330                   108000.0       2.069734E-05  q
 q331                   111000.0       2.069734E-05  q
 q332                   115000.0       2.069734E-05  q
 q333                   115000.0       2.069734E-05  q
 q334                   118000.0       2.069734E-05  q
 q336                   142000.0       2.069734E-05  q
 q337                   145000.0       2.069734E-05  q
 q338                   146000.0       2.069734E-05  q
 q339                   142000.0       2.069734E-05  q
 q340                   141000.0       2.069734E-05  q
 q341                   146000.0       2.069734E-05  q
 q342                   146000.0       2.069734E-05  q
 q343                   152000.0       2.069734E-05  q
 q344                   151000.0       2.069734E-05  q
 q345                   152000.0       2.069734E-05  q
 q346                   150000.0       2.069734E-05  q
 q347                   148000.0       2.069734E-05  q
 q348                   150000.0       2.069734E-05  q
 q349                   149000.0       2.069734E-05  q
 q350                   145000.0       2.069734E-05  q
 q351                   145000.0       2.069734E-05  q
 q352                   144000.0       2.069734E-05  q
 q356                   122000.0       2.069734E-05  q
 q357                   116000.0       2.069734E-05  q
 q358                   110000.0       2.069734E-05  q
 q359                   107000.0       2.069734E-05  q
 q360                   101000.0       2.069734E-05  q
 q361                   95700.00       2.069734E-05  q
 q362                   92900.00       2.069734E-05  q
 q363                   93500.00       2.069734E-05  q
 q364                   93200.00       2.069734E-05  q
 q365                   93500.00       2.069734E-05  q
 q366                   100000.0       2.069734E-05  q
 q367                   107000.0       2.069734E-05  q
 q368                   116000.0       2.069734E-05  q
 q369                   116000.0       2.069734E-05  q
 q370                   115000.0       2.069734E-05  q
 q374                   117000.0       2.069734E-05  q
 q375                   113000.0       2.069734E-05  q
 q376                   103000.0       2.069734E-05  q
 q377                   102000.0       2.069734E-05  q
 q378                   95700.00       2.069734E-05  q
 q379                   105000.0       2.069734E-05  q
 q380                   109000.0       2.069734E-05  q
 q381                   115000.0       2.069734E-05  q
 q382                   114000.0       2.069734E-05  q
 q383                   111000.0       2.069734E-05  q
 q384                   117000.0       2.069734E-05  q
 q385                   115000.0       2.069734E-05  q
 q386                   115000.0       2.069734E-05  q
 q387                   115000.0       2.069734E-05  q
 q388                   112000.0       2.069734E-05  q
 q389                   110000.0       2.069734E-05  q
 q390                   112000.0       2.069734E-05  q
 q391                   113000.0       2.069734E-05  q
 q392                   112000.0       2.069734E-05  q
 q393                   111000.0       2.069734E-05  q
 q394                   108000.0       2.069734E-05  q
 q395                   105000.0       2.069734E-05  q
 q396                   103000.0       2.069734E-05  q
 q397                   95400.00       2.069734E-05  q
 q398                   96700.00       2.069734E-05  q
 q399                   101000.0       2.069734E-05  q
 q400                   104000.0       2.069734E-05  q
 q401                   105000.0       2.069734E-05  q
 q403                   105000.0       2.069734E-05  q
 q404                   102000.0       2.069734E-05  q
 q405                   100000.0       2.069734E-05  q
 q406                   99800.00       2.069734E-05  q
 q407                   95800.00       2.069734E-05  q
 q408                   92700.00       2.069734E-05  q
 q409                   91300.00       2.069734E-05  q
 q410                   94000.00       2.069734E-05  q
 q411                   95200.00       2.069734E-05  q
 q412                   94800.00       2.069734E-05  q
 q413                   94400.00       2.069734E-05  q
 q414                   95900.00       2.069734E-05  q
 q415                   101000.0       2.069734E-05  q
 q416                   104000.0       2.069734E-05  q
 q417                   105000.0       2.069734E-05  q
 q418                   101000.0       2.069734E-05  q
 q419                   97300.00       2.069734E-05  q
 q420                   92200.00       2.069734E-05  q
 q421                   87800.00       2.069734E-05  q
 q422                   78900.00       2.069734E-05  q
 q423                   75900.00       2.069734E-05  q
 q424                   74700.00       2.069734E-05  q
 q425                   74500.00       2.069734E-05  q
 q426                   82900.00       2.069734E-05  q
 q427                   96800.00       2.069734E-05  q
 q428                   88300.00       2.069734E-05  q
 q429                   80400.00       2.069734E-05  q
 q430                   78400.00       2.069734E-05  q
 q431                   75200.00       2.069734E-05  q
 q432                   78800.00       2.069734E-05  q