pcf
* control data
restart  estimation
110  7574    18     0     1
2    1 single point   1   0   0
10.0  -3  0.3  0.03  10  lamforgive derforgive
10.0  10.0  0.001
0.1  noaui
   -2  0.005  4  4  0.005  4
1  1  1  PARSAVEITN
 * singular value decomposition
1
110 5E-06
1
* parameter groups
ddsd         relative 0.025  0.0  switch  2.0 parabolic 1.0e-4 0.5 smaller
ddsw         relative 0.025  0.0  switch  2.0 parabolic 1.0e-4 0.5 smaller
ddgd         relative 0.025  0.0  switch  2.0 parabolic 1.0e-4 0.5 smaller
ddgw         relative 0.025  0.0  switch  2.0 parabolic 1.0e-4 0.5 smaller
rcsd         relative 0.025  0.0  switch  2.0 parabolic 1.0e-4 0.5 smaller
rcsw         relative 0.025  0.0  switch  2.0 parabolic 1.0e-4 0.5 smaller
rcrd         relative 0.025  0.0  switch  2.0 parabolic 1.0e-4 0.5 smaller
rcrw         relative 0.025  0.0  switch  2.0 parabolic 1.0e-4 0.5 smaller
rcgd         relative 0.025  0.0  switch  2.0 parabolic 1.0e-4 0.5 smaller
rcgw         relative 0.025  0.0  switch  2.0 parabolic 1.0e-4 0.5 smaller
tl           relative 0.025  0.0  switch  2.0 parabolic 1.0e-4 0.5 smaller
xw           relative 0.025  0.0  switch  2.0 parabolic 1.0e-4 0.5 smaller
yw           relative 0.03  0.0  switch  2.0 parabolic 1.0e-4 0.5 smaller
x           relative 0.025  0.0  switch  2.0 parabolic 1.0e-4 0.5 smaller
y            relative 0.025  0.0  switch  2.0 parabolic 1.0e-4 0.5 smaller
tlr			 relative 0.5  0.0  switch  2.0 parabolic 1.0e-4 0.5 smaller
tls			 relative 0.5  0.0  switch  2.0 parabolic 1.0e-4 0.5 smaller
beta			 relative 0.025  0.0  switch  2.0 parabolic 1.0e-4 0.5 smaller
* parameter data
ddsd	log	factor   0.5858200      1.00e-08	1.1	ddsd	1	0	1
ddsw	log	factor   0.5503200      1.00e-08	1.1	ddsw	1	0	1
ddgd	log	factor    1.036236      1.00e-08	1.1	ddgd	1	0	1
ddgw	log	factor    1.042737      1.00e-08	1.1	ddgw	1	0	1
rcs1d	log	factor   0.3232335      1.00e-08	1	rcsd	1	0	1
rcs1w	log	factor   0.4440289      1.00e-08	1	rcsw	1	0	1
rcs2d	log	factor   0.3919665      1.00e-08	1	rcsd	1	0	1
rcs2w	log	factor   0.5073049      1.00e-08	1	rcsw	1	0	1
rcs3d	log	factor   0.6784171      1.00e-08	1	rcsd	1	0	1
rcs3w	log	factor    1.000000      1.00e-08	1	rcsw	1	0	1
rcs4d	log	factor   0.6312823      1.00e-08	1	rcsd	1	0	1
rcs4w	log	factor    1.000000      1.00e-08	1	rcsw	1	0	1
rcs5d	log	factor   0.8692890      1.00e-08	1	rcsd	1	0	1
rcs5w	log	factor    1.000000      1.00e-08	1	rcsw	1	0	1
rcs6d	log	factor    1.000000      1.00e-08	1	rcsd	1	0	1
rcs6w	log	factor    1.000000      1.00e-08	1	rcsw	1	0	1
rcs7d	log	factor    1.000000      1.00e-08	1	rcsd	1	0	1
rcs7w	log	factor    1.000000      1.00e-08	1	rcsw	1	0	1
rcs8d	log	factor   0.1027068      1.00e-08	1	rcsd	1	0	1
rcs8w	log	factor    1.000000      1.00e-08	1	rcsw	1	0	1
rcs9d	log	factor   0.2692516      1.00e-08	1	rcsd	1	0	1
rcs9w	log	factor    1.000000      1.00e-08	1	rcsw	1	0	1
rcs10d	log	factor   0.9906488      1.00e-08	1	rcsd	1	0	1
rcs10w	log	factor    1.000000      1.00e-08	1	rcsw	1	0	1
rcs11d	log	factor    1.000000      1.00e-08	1	rcsd	1	0	1
rcs11w	log	factor    1.000000      1.00e-08	1	rcsw	1	0	1
rcs12d	log	factor    1.000000      1.00e-08	1	rcsd	1	0	1
rcs12w	log	factor    1.000000      1.00e-08	1	rcsw	1	0	1
rcs13d	log	factor    1.000000      1.00e-08	1	rcsd	1	0	1
rcs13w	log	factor    1.000000      1.00e-08	1	rcsw	1	0	1
rcs14d	log	factor    1.000000      1.00e-08	1	rcsd	1	0	1
rcs14w	log	factor    1.000000      1.00e-08	1	rcsw	1	0	1
rcs15d	log	factor    1.000000      1.00e-08	1	rcsd	1	0	1
rcs15w	log	factor    1.000000      1.00e-08	1	rcsw	1	0	1
rcs16d	log	factor    1.000000      1.00e-08	1	rcsd	1	0	1
rcs16w	log	factor    1.000000      1.00e-08	1	rcsw	1	0	1
rcs17d	log	factor    1.000000      1.00e-08	1	rcsd	1	0	1
rcs17w	log	factor    1.000000      1.00e-08	1	rcsw	1	0	1
rcs18d	log	factor    1.000000      1.00e-08	1	rcsd	1	0	1
rcs18w	log	factor    1.000000      1.00e-08	1	rcsw	1	0	1
rcs19d	log	factor    1.000000      1.00e-08	1	rcsd	1	0	1
rcs19w	log	factor    1.000000      1.00e-08	1	rcsw	1	0	1
rcs20d	log	factor    1.000000      1.00e-08	1	rcsd	1	0	1
rcs20w	log	factor    1.000000      1.00e-08	1	rcsw	1	0	1
rcs21d	log	factor    1.000000      1.00e-08	1	rcsd	1	0	1
rcs21w	log	factor   0.5915998      1.00e-08	1	rcsw	1	0	1
rcs22d	log	factor   0.4088820      1.00e-08	1	rcsd	1	0	1
rcs22w	log	factor   0.4500656      1.00e-08	1	rcsw	1	0	1
rcs23d	log	factor   0.3607181      1.00e-08	1	rcsd	1	0	1
rcs23w	log	factor   0.4392715      1.00e-08	1	rcsw	1	0	1
rcs24d	log	factor   0.3230208      1.00e-08	1	rcsd	1	0	1
rcs24w	log	factor   0.4388081      1.00e-08	1	rcsw	1	0	1
rcr1d	log	factor   9.3485199E-04  1.00e-08	1	rcrd	1	0	1
rcr1w	log	factor   1.2728222E-03  1.00e-08	1	rcrw	1	0	1
rcr2d	log	factor   9.4255777E-04  1.00e-08	1	rcrd	1	0	1
rcr2w	log	factor   1.2852698E-03  1.00e-08	1	rcrw	1	0	1
rcr3d	log	factor   9.4431894E-04  1.00e-08	1	rcrd	1	0	1
rcr3w	log	factor   1.2897664E-03  1.00e-08	1	rcrw	1	0	1
rcr4d	log	factor   9.4429564E-04  1.00e-08	1	rcrd	1	0	1
rcr4w	log	factor   1.2920086E-03  1.00e-08	1	rcrw	1	0	1
rcr5d	log	factor   9.3473732E-04  1.00e-08	1	rcrd	1	0	1
rcr5w	log	factor   1.2893556E-03  1.00e-08	1	rcrw	1	0	1
rcr6d	log	factor   9.3439429E-04  1.00e-08	1	rcrd	1	0	1
rcr6w	log	factor   1.2908536E-03  1.00e-08	1	rcrw	1	0	1
rcr7d	log	factor   9.1430190E-04  1.00e-08	1	rcrd	1	0	1
rcr7w	log	factor   1.2789590E-03  1.00e-08	1	rcrw	1	0	1
rcr8d	log	factor   9.1269209E-04  1.00e-08	1	rcrd	1	0	1
rcr8w	log	factor   1.2769217E-03  1.00e-08	1	rcrw	1	0	1
rcr9d	log	factor   9.0834444E-04  1.00e-08	1	rcrd	1	0	1
rcr9w	log	factor   1.2778793E-03  1.00e-08	1	rcrw	1	0	1
rcr10d	log	factor   9.0871716E-04  1.00e-08	1	rcrd	1	0	1
rcr10w	log	factor   1.2751127E-03  1.00e-08	1	rcrw	1	0	1
rcr11d	log	factor   9.1338780E-04  1.00e-08	1	rcrd	1	0	1
rcr11w	log	factor   1.2719978E-03  1.00e-08	1	rcrw	1	0	1
rcr12d	log	factor   9.2457113E-04  1.00e-08	1	rcrd	1	0	1
rcr12w	log	factor   1.2686139E-03  1.00e-08	1	rcrw	1	0	1
rcr13d	log	factor   9.3966784E-04  1.00e-08	1	rcrd	1	0	1
rcr13w	log	factor   1.2700455E-03  1.00e-08	1	rcrw	1	0	1
rcr14d	log	factor   9.4098408E-04  1.00e-08	1	rcrd	1	0	1
rcr14w	log	factor   1.2705739E-03  1.00e-08	1	rcrw	1	0	1
rcr15d	log	factor   9.4105369E-04  1.00e-08	1	rcrd	1	0	1
rcr15w	log	factor   1.2721840E-03  1.00e-08	1	rcrw	1	0	1
rcr16d	log	factor   9.3830072E-04  1.00e-08	1	rcrd	1	0	1
rcr16w	log	factor   1.2710906E-03  1.00e-08	1	rcrw	1	0	1
rcr17d	log	factor   9.3712132E-04  1.00e-08	1	rcrd	1	0	1
rcr17w	log	factor   1.2711694E-03  1.00e-08	1	rcrw	1	0	1
rcr18d	log	factor   9.3727270E-04  1.00e-08	1	rcrd	1	0	1
rcr18w	log	factor   1.2711847E-03  1.00e-08	1	rcrw	1	0	1
rcr19d	log	factor   9.3568503E-04  1.00e-08	1	rcrd	1	0	1
rcr19w	log	factor   1.2708556E-03  1.00e-08	1	rcrw	1	0	1
rcr20d	log	factor   9.3457462E-04  1.00e-08	1	rcrd	1	0	1
rcr20w	log	factor   1.2705028E-03  1.00e-08	1	rcrw	1	0	1
rcr21d	log	factor   9.3345704E-04  1.00e-08	1	rcrd	1	0	1
rcr21w	log	factor   1.2700762E-03  1.00e-08	1	rcrw	1	0	1
rcr22d	log	factor   9.3307508E-04  1.00e-08	1	rcrd	1	0	1
rcr22w	log	factor   1.2700130E-03  1.00e-08	1	rcrw	1	0	1
rcr23d	log	factor   9.3303600E-04  1.00e-08	1	rcrd	1	0	1
rcr23w	log	factor   1.2700068E-03  1.00e-08	1	rcrw	1	0	1
rcr24d	log	factor   9.3300602E-04  1.00e-08	1	rcrd	1	0	1
rcr24w	log	factor   1.2700010E-03  1.00e-08	1	rcrw	1	0	1
rcgd	log	factor   0.1130991      1.00e-08	1	rcgd	1	0	1
rcgw	log	factor   0.2760014      1.00e-08	1	rcgw	1	0	1
tl	log	factor    4.926076      1.00e-08	5	tl	1	0	1
xw	log	factor    1.871369      1.00e-08	2.1	xw	1	0	1
yw	log	factor   0.1051698      1.00e-08	1	yw	1	0	1
x	log	factor    1.879847      1.00e-08	2.3	x	1	0	1
y	log	factor   5.9800000E-02  1.00e-08	1	y	1	0	1
tlr	log	factor    2.038000      1.00e-08	10	tlr	1	0	1
tls	log	factor   0.5802000      1.00e-08	30	tls	1	0	1
beta	log	factor   0.3000000      1.00e-01	3e-01	beta	1	0	1
* observation groups
q
* observation data
 q1                     174832.1       2.317522E-05  q
 q2                     177753.4       2.317522E-05  q
 q3                     176072.8       2.317522E-05  q
 q4                     150082.1       2.317522E-05  q
 q5                     159075.1       2.317522E-05  q
 q6                     160012.6       2.317522E-05  q
 q7                     153156.1       2.317522E-05  q
 q8                     143264.9       2.317522E-05  q
 q9                     139299.7       2.317522E-05  q
 q10                    141248.7       2.317522E-05  q
 q11                    141283.5       2.317522E-05  q
 q12                    143318.2       2.317522E-05  q
 q13                    138352.9       2.317522E-05  q
 q14                    137524.2       2.317522E-05  q
 q15                    132547.3       2.317522E-05  q
 q16                    130519.6       2.317522E-05  q
 q17                    117202.4       2.317522E-05  q
 q18                    129929.3       2.317522E-05  q
 q19                    136679.3       2.317522E-05  q
 q20                    144776.5       2.317522E-05  q
 q21                    145964.0       2.317522E-05  q
 q22                    148748.7       2.317522E-05  q
 q23                    142862.2       2.317522E-05  q
 q24                    134350.6       2.317522E-05  q
 q25                    148834.4       2.317522E-05  q
 q26                    135288.1       2.317522E-05  q
 q27                    151072.8       2.317522E-05  q
 q28                    139135.3       2.317522E-05  q
 q29                    127288.1       2.317522E-05  q
 q30                    117514.9       2.317522E-05  q
 q31                    119401.5       2.317522E-05  q
 q32                    110616.8       2.317522E-05  q
 q33                    104565.9       2.317522E-05  q
 q34                    107237.2       2.317522E-05  q
 q35                    102730.2       2.317522E-05  q
 q36                    103565.9       2.317522E-05  q
 q37                    97414.93       2.317522E-05  q
 q38                    101514.9       2.317522E-05  q
 q39                    104514.9       2.317522E-05  q
 q40                    96804.29       2.317522E-05  q
 q41                    99577.43       2.317522E-05  q
 q42                    98739.01       2.317522E-05  q
 q43                    118112.2       2.317522E-05  q
 q44                    98639.93       2.317522E-05  q
 q45                    101514.9       2.317522E-05  q
 q46                    98577.43       2.317522E-05  q
 q47                    102514.9       2.317522E-05  q
 q48                    101526.5       2.317522E-05  q
 q49                    101514.9       2.317522E-05  q
 q50                    101526.5       2.317522E-05  q
 q51                    98026.51       2.317522E-05  q
 q52                    94402.43       2.317522E-05  q
 q53                    97664.01       2.317522E-05  q
 q54                    92826.51       2.317522E-05  q
 q55                    99739.01       2.317522E-05  q
 q56                    93464.01       2.317522E-05  q
 q57                    89626.51       2.317522E-05  q
 q58                    84589.01       2.317522E-05  q
 q59                    80089.01       2.317522E-05  q
 q60                    79764.01       2.317522E-05  q
 q61                    76563.08       2.317522E-05  q
 q62                    75589.01       2.317522E-05  q
 q63                    75138.08       2.317522E-05  q
 q64                    73563.08       2.317522E-05  q
 q65                    71836.23       2.317522E-05  q
 q66                    76299.66       2.317522E-05  q
 q67                    78211.23       2.317522E-05  q
 q68                    76970.95       2.317522E-05  q
 q69                    76296.88       2.317522E-05  q
 q70                    71756.60       2.317522E-05  q
 q71                    71871.88       2.317522E-05  q
 q72                    69420.03       2.317522E-05  q
 q73                    68031.60       2.317522E-05  q
 q74                    69635.31       2.317522E-05  q
 q75                    67469.10       2.317522E-05  q
 q76                    62314.47       2.317522E-05  q
 q77                    63040.40       2.317522E-05  q
 q78                    65646.88       2.317522E-05  q
 q79                    62877.90       2.317522E-05  q
 q80                    62277.90       2.317522E-05  q
 q81                    60101.05       2.317522E-05  q
 q82                    57983.92       2.317522E-05  q
 q83                    58595.49       2.317522E-05  q
 q84                    55295.49       2.317522E-05  q
 q85                    62984.38       2.317522E-05  q
 q86                    57630.21       2.317522E-05  q
 q87                    60681.60       2.317522E-05  q
 q88                    59570.03       2.317522E-05  q
 q89                    60081.60       2.317522E-05  q
 q90                    60681.60       2.317522E-05  q
 q91                    59281.60       2.317522E-05  q
 q92                    59401.51       2.317522E-05  q
 q93                    55993.18       2.317522E-05  q
 q94                    56193.18       2.317522E-05  q
 q95                    53593.18       2.317522E-05  q
 q96                    53081.60       2.317522E-05  q
 q97                    55460.31       2.317522E-05  q
 q98                    55632.99       2.317522E-05  q
 q99                    52180.21       2.317522E-05  q
 q100                   49437.62       2.317522E-05  q
 q101                   50474.66       2.317522E-05  q
 q102                   52807.53       2.317522E-05  q
 q103                   51093.18       2.317522E-05  q
 q104                   55307.53       2.317522E-05  q
 q105                   63295.95       2.317522E-05  q
 q106                   60307.53       2.317522E-05  q
 q107                   56607.53       2.317522E-05  q
 q108                   60207.53       2.317522E-05  q
 q109                   55707.53       2.317522E-05  q
 q110                   53207.53       2.317522E-05  q
 q111                   51304.75       2.317522E-05  q
 q112                   50816.32       2.317522E-05  q
 q113                   51407.53       2.317522E-05  q
 q114                   51823.73       2.317522E-05  q
 q115                   54153.36       2.317522E-05  q
 q116                   50119.10       2.317522E-05  q
 q117                   43267.71       2.317522E-05  q
 q118                   44708.92       2.317522E-05  q
 q119                   45889.47       2.317522E-05  q
 q120                   46980.68       2.317522E-05  q
 q121                   47212.62       2.317522E-05  q
 q122                   47035.77       2.317522E-05  q
 q123                   45647.34       2.317522E-05  q
 q124                   46082.06       2.317522E-05  q
 q125                   46882.06       2.317522E-05  q
 q126                   44625.58       2.317522E-05  q
 q127                   42321.42       2.317522E-05  q
 q128                   45267.71       2.317522E-05  q
 q129                   45302.43       2.317522E-05  q
 q130                   44937.16       2.317522E-05  q
 q131                   44783.45       2.317522E-05  q
 q132                   44818.18       2.317522E-05  q
 q133                   44509.38       2.317522E-05  q
 q134                   44199.19       2.317522E-05  q
 q135                   43678.82       2.317522E-05  q
 q136                   46682.99       2.317522E-05  q
 q137                   43182.99       2.317522E-05  q
 q138                   43617.71       2.317522E-05  q
 q139                   43774.19       2.317522E-05  q
 q140                   43197.34       2.317522E-05  q
 q141                   43698.73       2.317522E-05  q
 q142                   42420.49       2.317522E-05  q
 q143                   44221.88       2.317522E-05  q
 q144                   41555.21       2.317522E-05  q
 q145                   43733.45       2.317522E-05  q
 q146                   43156.60       2.317522E-05  q
 q147                   42468.18       2.317522E-05  q
 q148                   39661.69       2.317522E-05  q
 q149                   41046.42       2.317522E-05  q
 q150                   43142.71       2.317522E-05  q
 q151                   39759.38       2.317522E-05  q
 q152                   37860.77       2.317522E-05  q
 q153                   38020.03       2.317522E-05  q
 q154                   41289.93       2.317522E-05  q
 q155                   42322.34       2.317522E-05  q
 q156                   41024.19       2.317522E-05  q
 q157                   39548.73       2.317522E-05  q
 q158                   39395.03       2.317522E-05  q
 q159                   39041.32       2.317522E-05  q
 q160                   38487.62       2.317522E-05  q
 q161                   38633.92       2.317522E-05  q
 q162                   38567.25       2.317522E-05  q
 q163                   37101.97       2.317522E-05  q
 q164                   60615.86       2.317522E-05  q
 q165                   149561.2       2.317522E-05  q
 q166                   287028.8       2.317522E-05  q
 q167                   99454.75       2.317522E-05  q
 q168                   80275.58       2.317522E-05  q
 q169                   65574.19       2.317522E-05  q
 q170                   60674.19       2.317522E-05  q
 q171                   50209.38       2.317522E-05  q
 q172                   63306.60       2.317522E-05  q
 q173                   104762.6       2.317522E-05  q
 q174                   84448.27       2.317522E-05  q
 q175                   74535.31       2.317522E-05  q
 q176                   75859.84       2.317522E-05  q
 q177                   65472.81       2.317522E-05  q
 q178                   61872.81       2.317522E-05  q
 q179                   64772.81       2.317522E-05  q
 q180                   59485.77       2.317522E-05  q
 q181                   76871.42       2.317522E-05  q
 q182                   336383.0       2.317522E-05  q
 q183                   285584.4       2.317522E-05  q
 q184                   131596.0       2.317522E-05  q
 q185                   105596.0       2.317522E-05  q
 q186                   103094.6       2.317522E-05  q
 q187                   97104.75       2.317522E-05  q
 q188                   89304.75       2.317522E-05  q
 q189                   85714.93       2.317522E-05  q
 q190                   83238.08       2.317522E-05  q
 q191                   80238.08       2.317522E-05  q
 q192                   75751.05       2.317522E-05  q
 q193                   70339.47       2.317522E-05  q
 q194                   68762.62       2.317522E-05  q
 q195                   66852.43       2.317522E-05  q
 q196                   64752.43       2.317522E-05  q
 q197                   62142.25       2.317522E-05  q
 q198                   61043.64       2.317522E-05  q
 q199                   62943.64       2.317522E-05  q
 q200                   61033.45       2.317522E-05  q
 q201                   60733.45       2.317522E-05  q
 q202                   64843.64       2.317522E-05  q
 q203                   74665.40       2.317522E-05  q
 q204                   65075.58       2.317522E-05  q
 q205                   61222.81       2.317522E-05  q
 q206                   64864.93       2.317522E-05  q
 q207                   64764.93       2.317522E-05  q
 q208                   65776.97       2.317522E-05  q
 q209                   66366.79       2.317522E-05  q
 q210                   66066.79       2.317522E-05  q
 q211                   65766.79       2.317522E-05  q
 q212                   64666.79       2.317522E-05  q
 q213                   64445.03       2.317522E-05  q
 q214                   64745.03       2.317522E-05  q
 q215                   68256.60       2.317522E-05  q
 q216                   69066.79       2.317522E-05  q
 q217                   69478.36       2.317522E-05  q
 q218                   68111.69       2.317522E-05  q
 q220                   60946.42       2.317522E-05  q
 q221                   68826.05       2.317522E-05  q
 q222                   71502.90       2.317522E-05  q
 q223                   67224.66       2.317522E-05  q
 q224                   68592.71       2.317522E-05  q
 q225                   69049.19       2.317522E-05  q
 q227                   63138.55       2.317522E-05  q
 q228                   60283.92       2.317522E-05  q
 q229                   61570.03       2.317522E-05  q
 q230                   59605.68       2.317522E-05  q
 q231                   61205.68       2.317522E-05  q
 q232                   66017.25       2.317522E-05  q
 q233                   69239.01       2.317522E-05  q
 q234                   79660.77       2.317522E-05  q
 q235                   73040.40       2.317522E-05  q
 q236                   73850.58       2.317522E-05  q
 q237                   66432.99       2.317522E-05  q
 q238                   67643.18       2.317522E-05  q
 q239                   62664.93       2.317522E-05  q
 q240                   62976.51       2.317522E-05  q
 q241                   60986.69       2.317522E-05  q
 q242                   59086.69       2.317522E-05  q
 q243                   58511.23       2.317522E-05  q
 q244                   57615.40       2.317522E-05  q
 q245                   57335.77       2.317522E-05  q
 q246                   59135.77       2.317522E-05  q
 q247                   60758.92       2.317522E-05  q
 q248                   66444.56       2.317522E-05  q
 q249                   66169.10       2.317522E-05  q
 q250                   67169.10       2.317522E-05  q
 q251                   60792.25       2.317522E-05  q
 q252                   61979.29       2.317522E-05  q
 q253                   60603.82       2.317522E-05  q
 q254                   62489.47       2.317522E-05  q
 q255                   55964.93       2.317522E-05  q
 q256                   62064.93       2.317522E-05  q
 q257                   62576.51       2.317522E-05  q
 q258                   62851.97       2.317522E-05  q
 q259                   63088.08       2.317522E-05  q
 q260                   69463.55       2.317522E-05  q
 q261                   74152.43       2.317522E-05  q
 q262                   72451.05       2.317522E-05  q
 q263                   74501.97       2.317522E-05  q
 q264                   77776.05       2.317522E-05  q
 q265                   71987.62       2.317522E-05  q
 q266                   69300.58       2.317522E-05  q
 q267                   68114.47       2.317522E-05  q
 q268                   72926.97       2.317522E-05  q
 q269                   80164.93       2.317522E-05  q
 q270                   84364.93       2.317522E-05  q
 q271                   100364.0       2.317522E-05  q
 q272                   103751.0       2.317522E-05  q
 q273                   105538.1       2.317522E-05  q
 q274                   109100.6       2.317522E-05  q
 q275                   116123.7       2.317522E-05  q
 q276                   115336.7       2.317522E-05  q
 q277                   103136.7       2.317522E-05  q
 q278                   104735.3       2.317522E-05  q
 q279                   109348.3       2.317522E-05  q
 q280                   118146.9       2.317522E-05  q
 q281                   120371.4       2.317522E-05  q
 q282                   125371.4       2.317522E-05  q
 q283                   120158.5       2.317522E-05  q
 q284                   116170.0       2.317522E-05  q
 q285                   115181.6       2.317522E-05  q
 q286                   117193.2       2.317522E-05  q
 q287                   120790.4       2.317522E-05  q
 q288                   127003.4       2.317522E-05  q
 q289                   135813.5       2.317522E-05  q
 q290                   133836.7       2.317522E-05  q
 q291                   142038.1       2.317522E-05  q
 q292                   153658.5       2.317522E-05  q
 q293                   161302.0       2.317522E-05  q
 q294                   173313.5       2.317522E-05  q
 q295                   182348.3       2.317522E-05  q
 q296                   182635.3       2.317522E-05  q
 q297                   172218.6       2.317522E-05  q
 q298                   170795.0       2.317522E-05  q
 q299                   156619.1       2.317522E-05  q
 q300                   144642.2       2.317522E-05  q
 q301                   152665.4       2.317522E-05  q
 q302                   172343.6       2.317522E-05  q
 q303                   182047.3       2.317522E-05  q
 q304                   206732.5       2.317522E-05  q
 q305                   177734.8       2.317522E-05  q
 q306                   156769.6       2.317522E-05  q
 q307                   158792.7       2.317522E-05  q
 q308                   159959.4       2.317522E-05  q
 q309                   154137.6       2.317522E-05  q
 q310                   146994.1       2.317522E-05  q
 q311                   142160.8       2.317522E-05  q
 q312                   143028.8       2.317522E-05  q
 q313                   143040.4       2.317522E-05  q
 q314                   126804.3       2.317522E-05  q
 q315                   124517.2       2.317522E-05  q
 q316                   122660.8       2.317522E-05  q
 q317                   127517.2       2.317522E-05  q
 q318                   126385.3       2.317522E-05  q
 q319                   130253.4       2.317522E-05  q
 q320                   139396.9       2.317522E-05  q
 q321                   156288.1       2.317522E-05  q
 q322                   188593.6       2.317522E-05  q
 q323                   220496.4       2.317522E-05  q
 q324                   235795.0       2.317522E-05  q
 q325                   235565.9       2.317522E-05  q
 q326                   248732.5       2.317522E-05  q
 q327                   229526.5       2.317522E-05  q
 q328                   241561.2       2.317522E-05  q
 q329                   249607.5       2.317522E-05  q
 q330                   281292.7       2.317522E-05  q
 q331                   294927.0       2.317522E-05  q
 q332                   295431.6       2.317522E-05  q
 q333                   288089.0       2.317522E-05  q
 q334                   303061.2       2.317522E-05  q
 q335                   294359.8       2.317522E-05  q
 q336                   347343.6       2.317522E-05  q
 q337                   361704.7       2.317522E-05  q
 q338                   341494.1       2.317522E-05  q
 q339                   326843.6       2.317522E-05  q
 q340                   345433.9       2.317522E-05  q
 q341                   383401.5       2.317522E-05  q
 q342                   410727.9       2.317522E-05  q
 q343                   396695.5       2.317522E-05  q
 q344                   403873.7       2.317522E-05  q
 q345                   399401.5       2.317522E-05  q
 q346                   451054.3       2.317522E-05  q
 q347                   429119.1       2.317522E-05  q
 q348                   419313.5       2.317522E-05  q
 q349                   406406.1       2.317522E-05  q
 q350                   369577.4       2.317522E-05  q
 q351                   357547.3       2.317522E-05  q
 q352                   368401.5       2.317522E-05  q
 q353                   443401.5       2.317522E-05  q
 q354                   465401.5       2.317522E-05  q
 q355                   491126.0       2.317522E-05  q
 q356                   441364.5       2.317522E-05  q
 q357                   422332.1       2.317522E-05  q
 q358                   370290.4       2.317522E-05  q
 q359                   372327.4       2.317522E-05  q
 q360                   338364.5       2.317522E-05  q
 q361                   303380.7       2.317522E-05  q
 q362                   273396.9       2.317522E-05  q
 q363                   266380.7       2.317522E-05  q
 q364                   272359.8       2.317522E-05  q
 q365                   284258.0       2.317522E-05  q
 q366                   285306.6       2.317522E-05  q
 q367                   293341.3       2.317522E-05  q
 q368                   334343.6       2.317522E-05  q
 q369                   351387.6       2.317522E-05  q
 q370                   359394.6       2.317522E-05  q
 q371                   374443.2       2.317522E-05  q
 q372                   367454.7       2.317522E-05  q
 q373                   362487.2       2.317522E-05  q
 q374                   363563.5       2.317522E-05  q
 q375                   279440.9       2.317522E-05  q
 q376                   269433.9       2.317522E-05  q
 q377                   257459.4       2.317522E-05  q
 q378                   290447.8       2.317522E-05  q
 q379                   300466.3       2.317522E-05  q
 q380                   305503.4       2.317522E-05  q
 q381                   350521.9       2.317522E-05  q
 q382                   355545.0       2.317522E-05  q
 q383                   345552.0       2.317522E-05  q
 q384                   315464.0       2.317522E-05  q
 q385                   308494.1       2.317522E-05  q
 q386                   307482.5       2.317522E-05  q
 q387                   308457.1       2.317522E-05  q
 q388                   288457.1       2.317522E-05  q
 q389                   284457.1       2.317522E-05  q
 q390                   288438.5       2.317522E-05  q
 q391                   281420.0       2.317522E-05  q
 q392                   285401.5       2.317522E-05  q
 q393                   273364.5       2.317522E-05  q
 q394                   258346.0       2.317522E-05  q
 q395                   253364.5       2.317522E-05  q
 q396                   242264.9       2.317522E-05  q
 q397                   242401.5       2.317522E-05  q
 q398                   249408.5       2.317522E-05  q
 q399                   259420.0       2.317522E-05  q
 q400                   271420.0       2.317522E-05  q
 q401                   272401.5       2.317522E-05  q
 q402                   258420.0       2.317522E-05  q
 q403                   262420.0       2.317522E-05  q
 q404                   257457.1       2.317522E-05  q